@<TRIPOS>MOLECULE
/home/jramos/Programacion/GITHUB_REPO_DIR/gecos2/examples/08-Extract_molecules/MD_extract_g16_conformers/MD_extract_005_gaussian.xyz
 18 17 0 0 0
SMALL
GASTEIGER

@<TRIPOS>ATOM
      1 C           3.6179    5.3386    9.6676 C.3     1  UNL1       -0.0629
      2 H           3.8076    4.2831    9.4342 H       1  UNL1        0.0231
      3 H           2.9960    5.7469    8.8596 H       1  UNL1        0.0231
      4 H           3.0191    5.3708   10.5874 H       1  UNL1        0.0231
      5 C           4.9117    6.1056    9.8178 C.3     1  UNL1       -0.0297
      6 H           5.4970    6.0437    8.8791 H       1  UNL1        0.0287
      7 H           5.5436    5.6294   10.5953 H       1  UNL1        0.0287
      8 C           4.6699    7.5861   10.1581 C.3     1  UNL1        0.0548
      9 H           3.8382    7.9867    9.5318 H       1  UNL1        0.0593
     10 O           4.1444    7.7594   11.4538 O.3     1  UNL1       -0.3918
     11 C           5.9317    8.4358    9.9239 C.3     1  UNL1       -0.0297
     12 H           4.8046    7.4599   12.0680 H       1  UNL1        0.2098
     13 H           6.1984    8.3814    8.8500 H       1  UNL1        0.0287
     14 H           5.6901    9.4997   10.1192 H       1  UNL1        0.0287
     15 C           7.1206    8.0290   10.7649 C.3     1  UNL1       -0.0629
     16 H           6.9059    8.0876   11.8411 H       1  UNL1        0.0231
     17 H           7.9801    8.6842   10.5719 H       1  UNL1        0.0231
     18 H           7.4412    7.0000   10.5513 H       1  UNL1        0.0231
@<TRIPOS>BOND
     1    13    11    1
     2     3     1    1
     3     6     5    1
     4     2     1    1
     5     9     8    1
     6     1     5    1
     7     1     4    1
     8     5     8    1
     9     5     7    1
    10    11    14    1
    11    11     8    1
    12    11    15    1
    13     8    10    1
    14    18    15    1
    15    17    15    1
    16    15    16    1
    17    10    12    1
