@<TRIPOS>MOLECULE
/home/jramos/Programacion/GITHUB_REPO_DIR/gecos2/examples/08-Extract_molecules/MD_extract_g16_conformers/MD_extract_020_gaussian.xyz
 18 17 0 0 0
SMALL
GASTEIGER

@<TRIPOS>ATOM
      1 C          11.2413    9.8918    8.8674 C.3     1  UNL11      -0.0629
      2 H          11.4067    9.0205    8.2191 H       1  UNL11       0.0231
      3 H          11.9038    9.7856    9.7361 H       1  UNL11       0.0231
      4 H          11.5689   10.7792    8.3094 H       1  UNL11       0.0231
      5 C           9.7959   10.0016    9.2953 C.3     1  UNL11      -0.0297
      6 H           9.6852   10.8426   10.0103 H       1  UNL11       0.0287
      7 H           9.5012    9.0949    9.8600 H       1  UNL11       0.0287
      8 C           8.8100   10.1940    8.1283 C.3     1  UNL11       0.0548
      9 H           7.7833   10.3208    8.5567 H       1  UNL11       0.0593
     10 O           9.0998   11.3436    7.3532 O.3     1  UNL11      -0.3918
     11 C           8.8118    8.9914    7.1729 C.3     1  UNL11      -0.0297
     12 H           9.2447   12.0542    7.9636 H       1  UNL11       0.2098
     13 H           9.7070    9.0221    6.5189 H       1  UNL11       0.0287
     14 H           8.9067    8.0611    7.7678 H       1  UNL11       0.0287
     15 C           7.5591    8.9333    6.3278 C.3     1  UNL11      -0.0629
     16 H           6.6543    8.8509    6.9450 H       1  UNL11       0.0231
     17 H           7.5769    8.0657    5.6556 H       1  UNL11       0.0231
     18 H           7.4485    9.8299    5.7039 H       1  UNL11       0.0231
@<TRIPOS>BOND
     1    17    15    1
     2    16    15    1
     3    14    11    1
     4    15    11    1
     5    15    18    1
     6    11    13    1
     7    11     8    1
     8     7     5    1
     9     9     8    1
    10     2     1    1
    11     8     5    1
    12     8    10    1
    13     5     1    1
    14     5     6    1
    15     1     3    1
    16     1     4    1
    17    10    12    1
