@<TRIPOS>MOLECULE
/home/jramos/Programacion/GITHUB_REPO_DIR/gecos2/examples/08-Extract_molecules/MD_extract_g16_conformers/MD_extract_007_gaussian.xyz
 18 17 0 0 0
SMALL
GASTEIGER

@<TRIPOS>ATOM
      1 C          10.7775   10.3059    9.8198 C.3     1  UNL11      -0.0629
      2 H          11.8443   10.3318   10.0727 H       1  UNL11       0.0231
      3 H          10.2677    9.7201   10.5960 H       1  UNL11       0.0231
      4 H          10.3947   11.3380    9.8864 H       1  UNL11       0.0231
      5 C          10.5472    9.7305    8.4400 C.3     1  UNL11      -0.0297
      6 H          10.8375    8.6622    8.4218 H       1  UNL11       0.0287
      7 H          11.2026   10.2336    7.7014 H       1  UNL11       0.0287
      8 C           9.0750    9.8663    8.0102 C.3     1  UNL11       0.0548
      9 H           8.4197    9.3716    8.7704 H       1  UNL11       0.0593
     10 O           8.6750   11.2223    7.9098 O.3     1  UNL11      -0.3918
     11 C           8.8546    9.2199    6.6351 C.3     1  UNL11      -0.0297
     12 H           9.0415   11.6617    8.6712 H       1  UNL11       0.2098
     13 H           9.3225    9.8397    5.8443 H       1  UNL11       0.0287
     14 H           9.3840    8.2465    6.6075 H       1  UNL11       0.0287
     15 C           7.3886    9.0106    6.3300 C.3     1  UNL11      -0.0629
     16 H           6.8378    9.9601    6.3115 H       1  UNL11       0.0231
     17 H           6.9056    8.3673    7.0777 H       1  UNL11       0.0231
     18 H           7.2535    8.5338    5.3507 H       1  UNL11       0.0231
@<TRIPOS>BOND
     1    16    15    1
     2    18    15    1
     3    13    11    1
     4    15    11    1
     5    15    17    1
     6    10    12    1
     7    10     8    1
     8    11    14    1
     9    11     8    1
    10     8     9    1
    11     8     5    1
    12     7     5    1
    13     5     6    1
    14     5     1    1
    15     4     1    1
    16     1     2    1
    17     1     3    1
