@<TRIPOS>MOLECULE
/home/jramos/Programacion/GITHUB_REPO_DIR/gecos2/examples/08-Extract_molecules/MD_extract_g16_conformers/MD_extract_001_gaussian.xyz
 18 17 0 0 0
SMALL
GASTEIGER

@<TRIPOS>ATOM
      1 C           0.9443    8.2960   13.6200 C.3     1  UNL1       -0.0629
      2 H           1.9043    8.5678   13.1593 H       1  UNL1        0.0231
      3 H           1.0875    8.3162   14.7092 H       1  UNL1        0.0231
      4 H           0.2308    9.0923   13.3710 H       1  UNL1        0.0231
      5 C           0.4428    6.9523   13.1414 C.3     1  UNL1       -0.0297
      6 H           0.2454    7.0005   12.0518 H       1  UNL1        0.0287
      7 H          -0.5344    6.7293   13.6133 H       1  UNL1        0.0287
      8 C           1.4008    5.7813   13.4239 C.3     1  UNL1        0.0548
      9 H           0.9691    4.8451   12.9978 H       1  UNL1        0.0593
     10 O           2.6004    5.8866   12.6925 O.3     1  UNL1       -0.3918
     11 C           1.6483    5.6017   14.9314 C.3     1  UNL1       -0.0297
     12 H           3.0357    6.6815   12.9779 H       1  UNL1        0.2098
     13 H           2.3042    6.4105   15.3136 H       1  UNL1        0.0287
     14 H           0.6870    5.7183   15.4697 H       1  UNL1        0.0287
     15 C           2.2555    4.2549   15.2509 C.3     1  UNL1       -0.0629
     16 H           1.5985    3.4306   14.9424 H       1  UNL1        0.0231
     17 H           2.4345    4.1462   16.3283 H       1  UNL1        0.0231
     18 H           3.2174    4.1131   14.7406 H       1  UNL1        0.0231
@<TRIPOS>BOND
     1     6     5    1
     2    10    12    1
     3    10     8    1
     4     9     8    1
     5     5     8    1
     6     5     7    1
     7     5     1    1
     8     2     1    1
     9     4     1    1
    10     8    11    1
    11     1     3    1
    12    18    15    1
    13    11    15    1
    14    11    13    1
    15    11    14    1
    16    16    15    1
    17    15    17    1
