@<TRIPOS>MOLECULE
/home/jramos/Programacion/GITHUB_REPO_DIR/gecos2/examples/08-Extract_molecules/MD_extract_g16_conformers/MD_extract_019_gaussian.xyz
 18 17 0 0 0
SMALL
GASTEIGER

@<TRIPOS>ATOM
      1 C           4.9740   11.7383    7.9670 C.3     1  UNL1       -0.0629
      2 H           4.6344   12.7297    8.2945 H       1  UNL1        0.0231
      3 H           6.0641   11.6975    8.1285 H       1  UNL1        0.0231
      4 H           4.5134   10.9958    8.6297 H       1  UNL1        0.0231
      5 C           4.6308   11.4779    6.5171 C.3     1  UNL1       -0.0297
      6 H           3.5466   11.6290    6.3512 H       1  UNL1        0.0287
      7 H           4.8299   10.4181    6.2611 H       1  UNL1        0.0287
      8 C           5.4245   12.4010    5.5743 C.3     1  UNL1        0.0548
      9 H           5.2315   13.4678    5.8513 H       1  UNL1        0.0593
     10 O           6.8210   12.1757    5.6636 O.3     1  UNL1       -0.3918
     11 C           5.0132   12.1606    4.1149 C.3     1  UNL1       -0.0297
     12 H           7.0135   12.0828    6.5917 H       1  UNL1        0.2098
     13 H           5.4004   11.1821    3.7672 H       1  UNL1        0.0287
     14 H           3.9088   12.0838    4.0618 H       1  UNL1        0.0287
     15 C           5.4913   13.2629    3.1970 C.3     1  UNL1       -0.0629
     16 H           5.0926   14.2419    3.4954 H       1  UNL1        0.0231
     17 H           5.1730   13.0807    2.1625 H       1  UNL1        0.0231
     18 H           6.5862   13.3434    3.1943 H       1  UNL1        0.0231
@<TRIPOS>BOND
     1    17    15    1
     2    18    15    1
     3    15    16    1
     4    15    11    1
     5    13    11    1
     6    14    11    1
     7    11     8    1
     8     8    10    1
     9     8     9    1
    10     8     5    1
    11    10    12    1
    12     7     5    1
    13     6     5    1
    14     5     1    1
    15     1     3    1
    16     1     2    1
    17     1     4    1
