@<TRIPOS>MOLECULE
/home/jramos/Programacion/GITHUB_REPO_DIR/gecos2/examples/08-Extract_molecules/MD_extract_g16_conformers/MD_extract_003_gaussian.xyz
 18 17 0 0 0
SMALL
GASTEIGER

@<TRIPOS>ATOM
      1 C          10.6801    9.8116    9.6977 C.3     1  UNL11      -0.0629
      2 H          10.7089   10.8615   10.0168 H       1  UNL11       0.0231
      3 H          11.6760    9.3864    9.8768 H       1  UNL11       0.0231
      4 H           9.9764    9.2881   10.3589 H       1  UNL11       0.0231
      5 C          10.2871    9.6804    8.2445 C.3     1  UNL11      -0.0297
      6 H          10.2859    8.6079    7.9422 H       1  UNL11       0.0287
      7 H          11.0395   10.1757    7.5992 H       1  UNL11       0.0287
      8 C           8.8887   10.2489    7.9626 C.3     1  UNL11       0.0548
      9 H           8.1890    9.9524    8.7842 H       1  UNL11       0.0593
     10 O           9.0081   11.6601    7.9478 O.3     1  UNL11      -0.3918
     11 C           8.3471    9.7230    6.6193 C.3     1  UNL11      -0.0297
     12 H           8.1390   12.0032    7.7896 H       1  UNL11       0.2098
     13 H           7.4069   10.2473    6.3557 H       1  UNL11       0.0287
     14 H           9.0610    9.9661    5.8075 H       1  UNL11       0.0287
     15 C           8.1068    8.2316    6.6730 C.3     1  UNL11      -0.0629
     16 H           9.0160    7.7063    7.0121 H       1  UNL11       0.0231
     17 H           7.8337    7.8315    5.6892 H       1  UNL11       0.0231
     18 H           7.3005    7.9732    7.3715 H       1  UNL11       0.0231
@<TRIPOS>BOND
     1    18    15    1
     2    17    15    1
     3    13    11    1
     4    15    11    1
     5    15    16    1
     6     9     8    1
     7    11     8    1
     8    11    14    1
     9    12    10    1
    10     8    10    1
    11     8     5    1
    12     4     1    1
    13     6     5    1
    14     5     1    1
    15     5     7    1
    16     1     2    1
    17     1     3    1
