@<TRIPOS>MOLECULE
/home/jramos/Programacion/GITHUB_REPO_DIR/gecos2/examples/08-Extract_molecules/MD_extract_g16_conformers/MD_extract_005_gaussian.xyz
 18 17 0 0 0
SMALL
GASTEIGER

@<TRIPOS>ATOM
      1 C          11.0724   10.1837    9.4309 C.3     1  UNL11      -0.0629
      2 H          12.0724    9.7384    9.5093 H       1  UNL11       0.0231
      3 H          10.5968   10.0986   10.4172 H       1  UNL11       0.0231
      4 H          11.2030   11.2540    9.2235 H       1  UNL11       0.0231
      5 C          10.2547    9.5037    8.3567 C.3     1  UNL11      -0.0297
      6 H          10.1517    8.4252    8.5883 H       1  UNL11       0.0287
      7 H          10.7927    9.5507    7.3877 H       1  UNL11       0.0287
      8 C           8.8523   10.1207    8.2202 C.3     1  UNL11       0.0548
      9 H           8.4220   10.3084    9.2322 H       1  UNL11       0.0593
     10 O           8.8902   11.4266    7.6927 O.3     1  UNL11      -0.3918
     11 C           7.9024    9.2021    7.4310 C.3     1  UNL11      -0.0297
     12 H           9.2294   11.3632    6.8074 H       1  UNL11       0.2098
     13 H           7.7931    8.2491    7.9852 H       1  UNL11       0.0287
     14 H           6.8920    9.6575    7.4158 H       1  UNL11       0.0287
     15 C           8.3460    8.9188    6.0135 C.3     1  UNL11      -0.0629
     16 H           8.4482    9.8381    5.4201 H       1  UNL11       0.0231
     17 H           7.6189    8.2801    5.4952 H       1  UNL11       0.0231
     18 H           9.3145    8.4007    5.9827 H       1  UNL11       0.0231
@<TRIPOS>BOND
     1    13    11    1
     2     3     1    1
     3     6     5    1
     4     2     1    1
     5     9     8    1
     6     1     5    1
     7     1     4    1
     8     5     8    1
     9     5     7    1
    10    11    14    1
    11    11     8    1
    12    11    15    1
    13     8    10    1
    14    18    15    1
    15    17    15    1
    16    15    16    1
    17    10    12    1
