@<TRIPOS>MOLECULE
/home/jramos/Programacion/GITHUB_REPO_DIR/gecos2/examples/08-Extract_molecules/MD_extract_g16_conformers/MD_extract_014_gaussian.xyz
 18 17 0 0 0
SMALL
GASTEIGER

@<TRIPOS>ATOM
      1 C           9.7601    5.2181    8.6045 C.3     1  UNL1       -0.0629
      2 H          10.3230    4.3152    8.3171 H       1  UNL1        0.0231
      3 H          10.3739    5.7683    9.3294 H       1  UNL1        0.0231
      4 H           9.6769    5.8504    7.7099 H       1  UNL1        0.0231
      5 C           8.4096    4.8785    9.1919 C.3     1  UNL1       -0.0297
      6 H           7.8807    5.8216    9.4363 H       1  UNL1        0.0287
      7 H           8.5451    4.3542   10.1588 H       1  UNL1        0.0287
      8 C           7.4946    4.0189    8.2987 C.3     1  UNL1        0.0548
      9 H           6.4538    4.1015    8.6945 H       1  UNL1        0.0593
     10 O           7.3285    4.5517    7.0078 O.3     1  UNL1       -0.3918
     11 C           7.8801    2.5272    8.2897 C.3     1  UNL1       -0.0297
     12 H           8.1773    4.5245    6.5808 H       1  UNL1        0.2098
     13 H           8.0626    2.2080    9.3351 H       1  UNL1        0.0287
     14 H           7.0058    1.9380    7.9470 H       1  UNL1        0.0287
     15 C           9.0725    2.1682    7.4332 C.3     1  UNL1       -0.0629
     16 H           9.3225    1.1045    7.5385 H       1  UNL1        0.0231
     17 H           9.9691    2.7447    7.7132 H       1  UNL1        0.0231
     18 H           8.8870    2.3495    6.3657 H       1  UNL1        0.0231
@<TRIPOS>BOND
     1    18    15    1
     2    12    10    1
     3    10     8    1
     4    15    16    1
     5    15    17    1
     6    15    11    1
     7     4     1    1
     8    14    11    1
     9    11     8    1
    10    11    13    1
    11     8     9    1
    12     8     5    1
    13     2     1    1
    14     1     5    1
    15     1     3    1
    16     5     6    1
    17     5     7    1
