@<TRIPOS>MOLECULE
/home/jramos/Programacion/GITHUB_REPO_DIR/gecos2/examples/08-Extract_molecules/MD_extract_g16_conformers/MD_extract_013_gaussian.xyz
 18 17 0 0 0
SMALL
GASTEIGER

@<TRIPOS>ATOM
      1 C          13.4256    7.0000    2.7703 C.3     1  UNL1       -0.0629
      2 H          13.9315    6.5323    1.9139 H       1  UNL1        0.0231
      3 H          12.7987    6.2281    3.2351 H       1  UNL1        0.0231
      4 H          14.2021    7.2729    3.4976 H       1  UNL1        0.0231
      5 C          12.5995    8.1959    2.3572 C.3     1  UNL1       -0.0297
      6 H          12.0708    8.6198    3.2413 H       1  UNL1        0.0287
      7 H          11.8038    7.8882    1.6504 H       1  UNL1        0.0287
      8 C          13.4532    9.3169    1.7391 C.3     1  UNL1        0.0548
      9 H          14.3772    9.4662    2.3527 H       1  UNL1        0.0593
     10 O          13.8444    9.0263    0.4092 O.3     1  UNL1       -0.3918
     11 C          12.6608   10.6324    1.6809 C.3     1  UNL1       -0.0297
     12 H          14.2131    8.1524    0.4229 H       1  UNL1        0.2098
     13 H          13.2254   11.3887    1.1004 H       1  UNL1        0.0287
     14 H          11.7143   10.4768    1.1257 H       1  UNL1        0.0287
     15 C          12.3718   11.1531    3.0711 C.3     1  UNL1       -0.0629
     16 H          13.2889   11.4565    3.5926 H       1  UNL1        0.0231
     17 H          11.8879   10.3741    3.6849 H       1  UNL1        0.0231
     18 H          11.7041   12.0225    3.0436 H       1  UNL1        0.0231
@<TRIPOS>BOND
     1    10    12    1
     2    10     8    1
     3    13    11    1
     4    14    11    1
     5     7     5    1
     6    11     8    1
     7    11    15    1
     8     8     9    1
     9     8     5    1
    10     2     1    1
    11     5     1    1
    12     5     6    1
    13     1     3    1
    14     1     4    1
    15    18    15    1
    16    15    16    1
    17    15    17    1
