@<TRIPOS>MOLECULE
/home/jramos/Programacion/GITHUB_REPO_DIR/gecos2/examples/08-Extract_molecules/MD_extract_g16_conformers/MD_extract_017_gaussian.xyz
 18 17 0 0 0
SMALL
GASTEIGER

@<TRIPOS>ATOM
      1 C          10.7748   10.2404    9.8384 C.3     1  UNL11      -0.0629
      2 H          10.2500    9.5630   10.5254 H       1  UNL11       0.0231
      3 H          10.4148   11.2569   10.0438 H       1  UNL11       0.0231
      4 H          11.8407   10.2108   10.0992 H       1  UNL11       0.0231
      5 C          10.5578    9.8508    8.3937 C.3     1  UNL11      -0.0297
      6 H          10.9678    8.8368    8.2152 H       1  UNL11       0.0287
      7 H          11.1287   10.5282    7.7277 H       1  UNL11       0.0287
      8 C           9.0721    9.8609    8.0067 C.3     1  UNL11       0.0548
      9 H           8.4690    9.3636    8.8071 H       1  UNL11       0.0593
     10 O           8.6624   11.2160    7.9339 O.3     1  UNL11      -0.3918
     11 C           8.8576    9.1221    6.6729 C.3     1  UNL11      -0.0297
     12 H           7.8357   11.2158    7.4611 H       1  UNL11       0.2098
     13 H           9.4382    9.6188    5.8702 H       1  UNL11       0.0287
     14 H           9.2686    8.0969    6.7514 H       1  UNL11       0.0287
     15 C           7.3930    9.0654    6.2994 C.3     1  UNL11      -0.0629
     16 H           6.8195    8.4365    6.9930 H       1  UNL11       0.0231
     17 H           7.2499    8.6600    5.2905 H       1  UNL11       0.0231
     18 H           6.9404   10.0708    6.3212 H       1  UNL11       0.0231
@<TRIPOS>BOND
     1     2     1    1
     2     9     8    1
     3    16    15    1
     4     1     3    1
     5     1     4    1
     6     1     5    1
     7     8     5    1
     8     8    10    1
     9     8    11    1
    10     6     5    1
    11    14    11    1
    12    15    18    1
    13    15    11    1
    14    15    17    1
    15     5     7    1
    16    10    12    1
    17    11    13    1
