@<TRIPOS>MOLECULE
/home/jramos/Programacion/GITHUB_REPO_DIR/gecos2/examples/08-Extract_molecules/MD_extract_g16_conformers/MD_extract_010_gaussian.xyz
 18 17 0 0 0
SMALL
GASTEIGER

@<TRIPOS>ATOM
      1 C           8.8116    7.7417   14.1251 C.3     1  UNL1       -0.0629
      2 H           7.9139    8.3553   14.2746 H       1  UNL1        0.0231
      3 H           9.1785    7.4470   15.1174 H       1  UNL1        0.0231
      4 H           8.5002    6.8240   13.6077 H       1  UNL1        0.0231
      5 C           9.8614    8.4947   13.3409 C.3     1  UNL1       -0.0297
      6 H          10.0912    9.4507   13.8545 H       1  UNL1        0.0287
      7 H           9.4558    8.7830   12.3508 H       1  UNL1        0.0287
      8 C          11.1669    7.7074   13.1252 C.3     1  UNL1        0.0548
      9 H          11.8916    8.3737   12.5916 H       1  UNL1        0.0593
     10 O          11.7679    7.3030   14.3424 O.3     1  UNL1       -0.3918
     11 C          10.9393    6.4392   12.2892 C.3     1  UNL1       -0.0297
     12 H          11.7671    8.0608   14.9117 H       1  UNL1        0.2098
     13 H          10.4764    5.6470   12.9120 H       1  UNL1        0.0287
     14 H          10.2026    6.6629   11.4920 H       1  UNL1        0.0287
     15 C          12.2210    5.9256   11.6725 C.3     1  UNL1       -0.0629
     16 H          12.6820    6.6706   11.0100 H       1  UNL1        0.0231
     17 H          12.0369    5.0244   11.0735 H       1  UNL1        0.0231
     18 H          12.9637    5.6651   12.4378 H       1  UNL1        0.0231
@<TRIPOS>BOND
     1    16    15    1
     2    17    15    1
     3    14    11    1
     4    15    11    1
     5    15    18    1
     6    11    13    1
     7    11     8    1
     8     7     5    1
     9     9     8    1
    10     8     5    1
    11     8    10    1
    12     5     6    1
    13     5     1    1
    14     4     1    1
    15     1     2    1
    16     1     3    1
    17    10    12    1
