@<TRIPOS>MOLECULE
/home/jramos/Programacion/GITHUB_REPO_DIR/gecos2/examples/08-Extract_molecules/MD_extract_g16_conformers/MD_extract_012_gaussian.xyz
 18 17 0 0 0
SMALL
GASTEIGER

@<TRIPOS>ATOM
      1 C           5.8978   14.8722   10.5257 C.3     1  UNL1       -0.0629
      2 H           5.8457   14.4689   11.5515 H       1  UNL1        0.0231
      3 H           5.1948   14.2942    9.9118 H       1  UNL1        0.0231
      4 H           5.5388   15.9079   10.5527 H       1  UNL1        0.0231
      5 C           7.3106   14.7892    9.9921 C.3     1  UNL1       -0.0297
      6 H           7.9673   15.4978   10.5352 H       1  UNL1        0.0287
      7 H           7.3372   15.1111    8.9323 H       1  UNL1        0.0287
      8 C           7.8649   13.3616   10.1211 C.3     1  UNL1        0.0548
      9 H           7.1643   12.6444    9.6240 H       1  UNL1        0.0593
     10 O           9.0932   13.3438    9.4160 O.3     1  UNL1       -0.3918
     11 C           8.0327   12.9765   11.6012 C.3     1  UNL1       -0.0297
     12 H           9.5022   12.5103    9.6105 H       1  UNL1        0.2098
     13 H           8.8778   13.5367   12.0480 H       1  UNL1        0.0287
     14 H           7.1229   13.3175   12.1460 H       1  UNL1        0.0287
     15 C           8.2278   11.4906   11.7941 C.3     1  UNL1       -0.0629
     16 H           7.3861   10.9132   11.3884 H       1  UNL1        0.0231
     17 H           8.3146   11.2382   12.8588 H       1  UNL1        0.0231
     18 H           9.1401   11.1269   11.3007 H       1  UNL1        0.0231
@<TRIPOS>BOND
     1     7     5    1
     2    10    12    1
     3    10     8    1
     4     9     8    1
     5     3     1    1
     6     5     8    1
     7     5     1    1
     8     5     6    1
     9     8    11    1
    10     1     4    1
    11     1     2    1
    12    18    15    1
    13    16    15    1
    14    11    15    1
    15    11    13    1
    16    11    14    1
    17    15    17    1
