@<TRIPOS>MOLECULE
/home/jramos/Programacion/GITHUB_REPO_DIR/gecos2/examples/08-Extract_molecules/MD_extract_g16_conformers/MD_extract_023_gaussian.xyz
 18 17 0 0 0
SMALL
GASTEIGER

@<TRIPOS>ATOM
      1 C           3.9801    4.7534    6.3043 C.3     1  UNL1       -0.0629
      2 H           4.5702    5.5382    6.7930 H       1  UNL1        0.0231
      3 H           4.6787    4.1065    5.7575 H       1  UNL1        0.0231
      4 H           3.5209    4.1401    7.0974 H       1  UNL1        0.0231
      5 C           2.9250    5.3383    5.3919 C.3     1  UNL1       -0.0297
      6 H           3.4059    5.8586    4.5411 H       1  UNL1        0.0287
      7 H           2.3421    6.1132    5.9284 H       1  UNL1        0.0287
      8 C           1.9771    4.2503    4.8545 C.3     1  UNL1        0.0548
      9 H           2.5754    3.4634    4.3303 H       1  UNL1        0.0593
     10 O           1.2492    3.6203    5.8948 O.3     1  UNL1       -0.3918
     11 C           0.9556    4.8593    3.8835 C.3     1  UNL1       -0.0297
     12 H           1.8728    3.4710    6.5990 H       1  UNL1        0.2098
     13 H           0.2177    5.4696    4.4416 H       1  UNL1        0.0287
     14 H           1.4796    5.5641    3.2074 H       1  UNL1        0.0287
     15 C           0.2439    3.8046    3.0667 C.3     1  UNL1       -0.0629
     16 H          -0.4697    4.2611    2.3687 H       1  UNL1        0.0231
     17 H          -0.3185    3.1088    3.7028 H       1  UNL1        0.0231
     18 H           0.9481    3.2072    2.4721 H       1  UNL1        0.0231
@<TRIPOS>BOND
     1    16    15    1
     2    18    15    1
     3    15    17    1
     4    15    11    1
     5    14    11    1
     6    11    13    1
     7    11     8    1
     8     9     8    1
     9     6     5    1
    10     8     5    1
    11     8    10    1
    12     5     7    1
    13     5     1    1
    14     3     1    1
    15    10    12    1
    16     1     2    1
    17     1     4    1
