@<TRIPOS>MOLECULE
/home/jramos/Programacion/GITHUB_REPO_DIR/gecos2/examples/08-Extract_molecules/MD_extract_g16_conformers/MD_extract_012_gaussian.xyz
 18 17 0 0 0
SMALL
GASTEIGER

@<TRIPOS>ATOM
      1 C          10.7784    9.2233    9.4292 C.3     1  UNL11      -0.0629
      2 H          10.6882    8.3191    8.8032 H       1  UNL11       0.0231
      3 H          10.1492    9.0706   10.3157 H       1  UNL11       0.0231
      4 H          11.8181    9.2942    9.7701 H       1  UNL11       0.0231
      5 C          10.3654   10.4529    8.6512 C.3     1  UNL11      -0.0297
      6 H          11.1051   10.6683    7.8545 H       1  UNL11       0.0287
      7 H          10.3720   11.3421    9.3121 H       1  UNL11       0.0287
      8 C           8.9709   10.2697    8.0317 C.3     1  UNL11       0.0548
      9 H           8.2415    9.9912    8.8334 H       1  UNL11       0.0593
     10 O           8.5961   11.5317    7.5090 O.3     1  UNL11      -0.3918
     11 C           8.9961    9.1724    6.9535 C.3     1  UNL11      -0.0297
     12 H           7.8041   11.3896    7.0067 H       1  UNL11       0.2098
     13 H           9.5431    9.5292    6.0584 H       1  UNL11       0.0287
     14 H           9.5918    8.3193    7.3512 H       1  UNL11       0.0287
     15 C           7.6110    8.7055    6.5704 C.3     1  UNL11      -0.0629
     16 H           7.0587    8.3156    7.4360 H       1  UNL11       0.0231
     17 H           7.6570    7.9028    5.8231 H       1  UNL11       0.0231
     18 H           7.0078    9.5157    6.1372 H       1  UNL11       0.0231
@<TRIPOS>BOND
     1     7     5    1
     2    10    12    1
     3    10     8    1
     4     9     8    1
     5     3     1    1
     6     5     8    1
     7     5     1    1
     8     5     6    1
     9     8    11    1
    10     1     4    1
    11     1     2    1
    12    18    15    1
    13    16    15    1
    14    11    15    1
    15    11    13    1
    16    11    14    1
    17    15    17    1
