@<TRIPOS>MOLECULE
/home/jramos/Programacion/GITHUB_REPO_DIR/gecos2/examples/08-Extract_molecules/MD_extract_g16_conformers/MD_extract_021_gaussian.xyz
 18 17 0 0 0
SMALL
GASTEIGER

@<TRIPOS>ATOM
      1 C          10.8086    9.2272    9.2858 C.3     1  UNL11      -0.0629
      2 H          11.8679    8.9606    9.1911 H       1  UNL11       0.0231
      3 H          10.2156    8.3003    9.2025 H       1  UNL11       0.0231
      4 H          10.6565    9.6226   10.2985 H       1  UNL11       0.0231
      5 C          10.3882   10.2193    8.2245 C.3     1  UNL11      -0.0297
      6 H          10.7033    9.8629    7.2170 H       1  UNL11       0.0287
      7 H          10.8938   11.1916    8.3788 H       1  UNL11       0.0287
      8 C           8.8612   10.3940    8.2279 C.3     1  UNL11       0.0548
      9 H           8.5084   10.5871    9.2716 H       1  UNL11       0.0593
     10 O           8.5714   11.5513    7.4664 O.3     1  UNL11      -0.3918
     11 C           8.1832    9.1183    7.6960 C.3     1  UNL11      -0.0297
     12 H           7.6554   11.4997    7.2282 H       1  UNL11       0.2098
     13 H           8.5441    8.2753    8.3279 H       1  UNL11       0.0287
     14 H           7.0877    9.1711    7.8456 H       1  UNL11       0.0287
     15 C           8.5054    8.8454    6.2443 C.3     1  UNL11      -0.0629
     16 H           9.5926    8.9256    6.0724 H       1  UNL11       0.0231
     17 H           8.0158    9.5636    5.5735 H       1  UNL11       0.0231
     18 H           8.1860    7.8409    5.9425 H       1  UNL11       0.0231
@<TRIPOS>BOND
     1    14    11    1
     2     9     8    1
     3     4     1    1
     4    13    11    1
     5     3     1    1
     6    11     8    1
     7    11    15    1
     8     1     2    1
     9     1     5    1
    10     8    10    1
    11     8     5    1
    12    12    10    1
    13    18    15    1
    14     5     7    1
    15     5     6    1
    16    15    17    1
    17    15    16    1
