@<TRIPOS>MOLECULE
/home/jramos/Programacion/GITHUB_REPO_DIR/gecos2/examples/08-Extract_molecules/MD_extract_g16_conformers/MD_extract_000_gaussian.xyz
 18 17 0 0 0
SMALL
GASTEIGER

@<TRIPOS>ATOM
      1 C          10.7847   10.2857    9.8243 C.3     1  UNL11      -0.0629
      2 H          11.8385   10.1855   10.1138 H       1  UNL11       0.0231
      3 H          10.1861    9.7384   10.5647 H       1  UNL11       0.0231
      4 H          10.5185   11.3475    9.9117 H       1  UNL11       0.0231
      5 C          10.5506    9.7641    8.4254 C.3     1  UNL11      -0.0297
      6 H          10.8543    8.7000    8.3693 H       1  UNL11       0.0287
      7 H          11.2026   10.2989    7.7053 H       1  UNL11       0.0287
      8 C           9.0782    9.8879    7.9955 C.3     1  UNL11       0.0548
      9 H           8.4058    9.4822    8.7867 H       1  UNL11       0.0593
     10 O           8.6556   11.2308    7.9285 O.3     1  UNL11      -0.3918
     11 C           8.8562    9.1433    6.6672 C.3     1  UNL11      -0.0297
     12 H           9.1840   11.6611    7.2675 H       1  UNL11       0.2098
     13 H           9.4177    9.6442    5.8528 H       1  UNL11       0.0287
     14 H           9.2899    8.1269    6.7469 H       1  UNL11       0.0287
     15 C           7.3926    9.0438    6.3040 C.3     1  UNL11      -0.0629
     16 H           6.8214    8.5069    7.0731 H       1  UNL11       0.0231
     17 H           7.2547    8.5068    5.3568 H       1  UNL11       0.0231
     18 H           6.9339   10.0350    6.1906 H       1  UNL11       0.0231
@<TRIPOS>BOND
     1     4     1    1
     2     2     1    1
     3     7     5    1
     4    12    10    1
     5     1     5    1
     6     1     3    1
     7    10     8    1
     8     5     6    1
     9     5     8    1
    10     8     9    1
    11     8    11    1
    12    13    11    1
    13    11    14    1
    14    11    15    1
    15    18    15    1
    16    15    17    1
    17    15    16    1
