@<TRIPOS>MOLECULE
/home/jramos/Programacion/GITHUB_REPO_DIR/gecos2/examples/08-Extract_molecules/MD_extract_g16_conformers/MD_extract_022_gaussian.xyz
 18 17 0 0 0
SMALL
GASTEIGER

@<TRIPOS>ATOM
      1 C          10.7784    9.2230    9.4289 C.3     1  UNL11      -0.0629
      2 H          11.8183    9.2937    9.7694 H       1  UNL11       0.0231
      3 H          10.6880    8.3190    8.8025 H       1  UNL11       0.0231
      4 H          10.1495    9.0698   10.3155 H       1  UNL11       0.0231
      5 C          10.3651   10.4529    8.6515 C.3     1  UNL11      -0.0297
      6 H          11.1050   10.6693    7.8553 H       1  UNL11       0.0287
      7 H          10.3712   11.3417    9.3131 H       1  UNL11       0.0287
      8 C           8.9708   10.2700    8.0316 C.3     1  UNL11       0.0548
      9 H           8.2412    9.9911    8.8331 H       1  UNL11       0.0593
     10 O           8.5964   11.5320    7.5089 O.3     1  UNL11      -0.3918
     11 C           8.9961    9.1727    6.9533 C.3     1  UNL11      -0.0297
     12 H           7.8038   11.3903    7.0074 H       1  UNL11       0.2098
     13 H           9.5425    9.5299    6.0581 H       1  UNL11       0.0287
     14 H           9.5923    8.3199    7.3507 H       1  UNL11       0.0287
     15 C           7.6111    8.7049    6.5707 C.3     1  UNL11      -0.0629
     16 H           7.0076    9.5143    6.1365 H       1  UNL11       0.0231
     17 H           7.0589    8.3159    7.4369 H       1  UNL11       0.0231
     18 H           7.6575    7.9015    5.8245 H       1  UNL11       0.0231
@<TRIPOS>BOND
     1     4     1    1
     2     7     5    1
     3     2     1    1
     4     1     5    1
     5     1     3    1
     6     9     8    1
     7     5     8    1
     8     5     6    1
     9     8    10    1
    10     8    11    1
    11    10    12    1
    12    17    15    1
    13    14    11    1
    14    11    15    1
    15    11    13    1
    16    15    16    1
    17    15    18    1
