@<TRIPOS>MOLECULE
/home/jramos/Programacion/GITHUB_REPO_DIR/gecos2/examples/08-Extract_molecules/MD_extract_g16_conformers/MD_extract_013_gaussian.xyz
 18 17 0 0 0
SMALL
GASTEIGER

@<TRIPOS>ATOM
      1 C          10.7065    9.8048    9.7106 C.3     1  UNL11      -0.0629
      2 H          10.7922   10.8620    9.9985 H       1  UNL11       0.0231
      3 H          11.6827    9.3394    9.8984 H       1  UNL11       0.0231
      4 H           9.9846    9.3387   10.3947 H       1  UNL11       0.0231
      5 C          10.2951    9.6420    8.2657 C.3     1  UNL11      -0.0297
      6 H          10.2568    8.5614    7.9980 H       1  UNL11       0.0287
      7 H          11.0554   10.0905    7.5963 H       1  UNL11       0.0287
      8 C           8.9103   10.2466    7.9755 C.3     1  UNL11       0.0548
      9 H           8.1983    9.9614    8.7905 H       1  UNL11       0.0593
     10 O           8.9458   11.6600    7.8901 O.3     1  UNL11      -0.3918
     11 C           8.3709    9.7437    6.6272 C.3     1  UNL11      -0.0297
     12 H           9.4026   11.9641    8.6638 H       1  UNL11       0.2098
     13 H           7.4498   10.2975    6.3579 H       1  UNL11       0.0287
     14 H           9.0996    9.9692    5.8231 H       1  UNL11       0.0287
     15 C           8.0894    8.2585    6.6759 C.3     1  UNL11      -0.0629
     16 H           7.2642    8.0213    7.3599 H       1  UNL11       0.0231
     17 H           8.9771    7.7062    7.0289 H       1  UNL11       0.0231
     18 H           7.8217    7.8678    5.6869 H       1  UNL11       0.0231
@<TRIPOS>BOND
     1    10    12    1
     2    10     8    1
     3    13    11    1
     4    14    11    1
     5     7     5    1
     6    11     8    1
     7    11    15    1
     8     8     9    1
     9     8     5    1
    10     2     1    1
    11     5     1    1
    12     5     6    1
    13     1     3    1
    14     1     4    1
    15    18    15    1
    16    15    16    1
    17    15    17    1
