@<TRIPOS>MOLECULE
/home/jramos/Programacion/GITHUB_REPO_DIR/gecos2/examples/08-Extract_molecules/MD_extract_g16_conformers/MD_extract_024_gaussian.xyz
 18 17 0 0 0
SMALL
GASTEIGER

@<TRIPOS>ATOM
      1 C          10.7777    9.2227    9.4289 C.3     1  UNL11      -0.0629
      2 H          10.1480    9.0693   10.3148 H       1  UNL11       0.0231
      3 H          11.8173    9.2933    9.7703 H       1  UNL11       0.0231
      4 H          10.6878    8.3189    8.8022 H       1  UNL11       0.0231
      5 C          10.3651   10.4527    8.6514 C.3     1  UNL11      -0.0297
      6 H          11.1053   10.6684    7.8551 H       1  UNL11       0.0287
      7 H          10.3717   11.3416    9.3127 H       1  UNL11       0.0287
      8 C           8.9708   10.2702    8.0313 C.3     1  UNL11       0.0548
      9 H           8.2411    9.9913    8.8326 H       1  UNL11       0.0593
     10 O           8.5966   11.5326    7.5092 O.3     1  UNL11      -0.3918
     11 C           8.9962    9.1736    6.9524 C.3     1  UNL11      -0.0297
     12 H           7.8041   11.3913    7.0075 H       1  UNL11       0.2098
     13 H           9.5407    9.5320    6.0565 H       1  UNL11       0.0287
     14 H           9.5944    8.3214    7.3484 H       1  UNL11       0.0287
     15 C           7.6114    8.7038    6.5717 C.3     1  UNL11      -0.0629
     16 H           7.0061    9.5121    6.1381 H       1  UNL11       0.0231
     17 H           7.0609    8.3140    7.4386 H       1  UNL11       0.0231
     18 H           7.6581    7.9002    5.8255 H       1  UNL11       0.0231
@<TRIPOS>BOND
     1    18    15    1
     2    16    15    1
     3    15    17    1
     4    15    11    1
     5    13    11    1
     6    11    14    1
     7    11     8    1
     8    12    10    1
     9    10     8    1
    10     8     9    1
    11     8     5    1
    12     4     1    1
    13     6     5    1
    14     5     1    1
    15     5     7    1
    16     1     3    1
    17     1     2    1
