@<TRIPOS>MOLECULE
/home/jramos/Programacion/GITHUB_REPO_DIR/gecos2/examples/08-Extract_molecules/MD_extract_g16_conformers/MD_extract_020_gaussian.xyz
 18 17 0 0 0
SMALL
GASTEIGER

@<TRIPOS>ATOM
      1 C           9.0448    8.6476    3.3779 C.3     1  UNL1       -0.0629
      2 H           9.8112    8.7816    2.6023 H       1  UNL1        0.0231
      3 H           8.9629    7.5712    3.5765 H       1  UNL1        0.0231
      4 H           9.4215    9.1240    4.2930 H       1  UNL1        0.0231
      5 C           7.7147    9.2256    2.9527 C.3     1  UNL1       -0.0297
      6 H           6.9503    9.0003    3.7245 H       1  UNL1        0.0287
      7 H           7.3616    8.7190    2.0326 H       1  UNL1        0.0287
      8 C           7.7446   10.7434    2.6955 C.3     1  UNL1        0.0548
      9 H           6.7049   11.0751    2.4450 H       1  UNL1        0.0593
     10 O           8.1723   11.4802    3.8271 O.3     1  UNL1       -0.3918
     11 C           8.6829   11.1094    1.5358 C.3     1  UNL1       -0.0297
     12 H           7.6904   11.1423    4.5702 H       1  UNL1        0.2098
     13 H           9.7396   11.0704    1.8702 H       1  UNL1        0.0287
     14 H           8.5904   10.3400    0.7435 H       1  UNL1        0.0287
     15 C           8.3747   12.4744    0.9627 C.3     1  UNL1       -0.0629
     16 H           7.3486   12.5317    0.5750 H       1  UNL1        0.0231
     17 H           9.0519   12.7158    0.1332 H       1  UNL1        0.0231
     18 H           8.4838   13.2651    1.7164 H       1  UNL1        0.0231
@<TRIPOS>BOND
     1    17    15    1
     2    16    15    1
     3    14    11    1
     4    15    11    1
     5    15    18    1
     6    11    13    1
     7    11     8    1
     8     7     5    1
     9     9     8    1
    10     2     1    1
    11     8     5    1
    12     8    10    1
    13     5     1    1
    14     5     6    1
    15     1     3    1
    16     1     4    1
    17    10    12    1
