@<TRIPOS>MOLECULE
/home/jramos/Programacion/GITHUB_REPO_DIR/gecos2/examples/08-Extract_molecules/MD_extract_g16_conformers/MD_extract_015_gaussian.xyz
 18 17 0 0 0
SMALL
GASTEIGER

@<TRIPOS>ATOM
      1 C           1.1354    7.7593    9.8527 C.3     1  UNL1       -0.0629
      2 H           1.4757    7.4030    8.8713 H       1  UNL1        0.0231
      3 H           0.4194    7.0231   10.2401 H       1  UNL1        0.0231
      4 H           2.0070    7.7542   10.5207 H       1  UNL1        0.0231
      5 C           0.5117    9.1329    9.7633 C.3     1  UNL1       -0.0297
      6 H           0.1565    9.4462   10.7649 H       1  UNL1        0.0287
      7 H          -0.3927    9.0998    9.1227 H       1  UNL1        0.0287
      8 C           1.4972   10.1874    9.2294 C.3     1  UNL1        0.0548
      9 H           2.4660   10.1281    9.7775 H       1  UNL1        0.0593
     10 O           1.9038    9.9132    7.9081 O.3     1  UNL1       -0.3918
     11 C           0.8859   11.5928    9.3681 C.3     1  UNL1       -0.0297
     12 H           1.1283    9.9435    7.3612 H       1  UNL1        0.2098
     13 H           0.0024   11.6897    8.7051 H       1  UNL1        0.0287
     14 H           0.5001   11.7179   10.3992 H       1  UNL1        0.0287
     15 C           1.8854   12.6848    9.0641 C.3     1  UNL1       -0.0629
     16 H           2.7487   12.6419    9.7416 H       1  UNL1        0.0231
     17 H           1.4320   13.6785    9.1711 H       1  UNL1        0.0231
     18 H           2.2722   12.6076    8.0392 H       1  UNL1        0.0231
@<TRIPOS>BOND
     1    12    10    1
     2    10     8    1
     3    18    15    1
     4    13    11    1
     5     2     1    1
     6    15    17    1
     7    15    11    1
     8    15    16    1
     9     7     5    1
    10     8    11    1
    11     8     5    1
    12     8     9    1
    13    11    14    1
    14     5     1    1
    15     5     6    1
    16     1     3    1
    17     1     4    1
