@<TRIPOS>MOLECULE
/home/jramos/Programacion/GITHUB_REPO_DIR/gecos2/examples/08-Extract_molecules/MD_extract_g16_conformers/MD_extract_019_gaussian.xyz
 18 17 0 0 0
SMALL
GASTEIGER

@<TRIPOS>ATOM
      1 C          10.7778   10.3067    9.8195 C.3     1  UNL11      -0.0629
      2 H          10.2685    9.7212   10.5962 H       1  UNL11       0.0231
      3 H          10.3948   11.3387    9.8857 H       1  UNL11       0.0231
      4 H          11.8447   10.3330   10.0721 H       1  UNL11       0.0231
      5 C          10.5473    9.7304    8.4402 C.3     1  UNL11      -0.0297
      6 H          10.8377    8.6621    8.4224 H       1  UNL11       0.0287
      7 H          11.2025   10.2331    7.7010 H       1  UNL11       0.0287
      8 C           9.0749    9.8658    8.0104 C.3     1  UNL11       0.0548
      9 H           8.4200    9.3713    8.7710 H       1  UNL11       0.0593
     10 O           8.6747   11.2218    7.9096 O.3     1  UNL11      -0.3918
     11 C           8.8546    9.2188    6.6358 C.3     1  UNL11      -0.0297
     12 H           9.0419   11.6615    8.6704 H       1  UNL11       0.2098
     13 H           9.3244    9.8371    5.8450 H       1  UNL11       0.0287
     14 H           9.3821    8.2444    6.6096 H       1  UNL11       0.0287
     15 C           7.3885    9.0121    6.3294 C.3     1  UNL11      -0.0629
     16 H           6.9033    8.3709    7.0776 H       1  UNL11       0.0231
     17 H           7.2536    8.5338    5.3507 H       1  UNL11       0.0231
     18 H           6.8395    9.9626    6.3088 H       1  UNL11       0.0231
@<TRIPOS>BOND
     1    17    15    1
     2    18    15    1
     3    15    16    1
     4    15    11    1
     5    13    11    1
     6    14    11    1
     7    11     8    1
     8     8    10    1
     9     8     9    1
    10     8     5    1
    11    10    12    1
    12     7     5    1
    13     6     5    1
    14     5     1    1
    15     1     3    1
    16     1     2    1
    17     1     4    1
