@<TRIPOS>MOLECULE
/home/jramos/Programacion/GITHUB_REPO_DIR/gecos2/examples/08-Extract_molecules/MD_extract_g16_conformers/MD_extract_001_gaussian.xyz
 18 17 0 0 0
SMALL
GASTEIGER

@<TRIPOS>ATOM
      1 C          11.2407    9.8262    8.8689 C.3     1  UNL11      -0.0629
      2 H          11.6314   10.6480    8.2526 H       1  UNL11       0.0231
      3 H          11.3583    8.8996    8.2902 H       1  UNL11       0.0231
      4 H          11.8926    9.7453    9.7484 H       1  UNL11       0.0231
      5 C           9.8041   10.0561    9.2807 C.3     1  UNL11      -0.0297
      6 H           9.7451   10.9597    9.9198 H       1  UNL11       0.0287
      7 H           9.4595    9.2166    9.9162 H       1  UNL11       0.0287
      8 C           8.8249   10.2123    8.1036 C.3     1  UNL11       0.0548
      9 H           7.8044   10.4216    8.5025 H       1  UNL11       0.0593
     10 O           9.0717   11.3817    7.3574 O.3     1  UNL11      -0.3918
     11 C           8.7913    8.9520    7.2224 C.3     1  UNL11      -0.0297
     12 H           9.9441   11.3022    6.9893 H       1  UNL11       0.2098
     13 H           9.7195    8.8780    6.6195 H       1  UNL11       0.0287
     14 H           8.7882    8.0570    7.8754 H       1  UNL11       0.0287
     15 C           7.5851    8.9274    6.3119 C.3     1  UNL11      -0.0629
     16 H           6.6465    8.9342    6.8823 H       1  UNL11       0.0231
     17 H           7.5808    8.0274    5.6837 H       1  UNL11       0.0231
     18 H           7.5655    9.7974    5.6422 H       1  UNL11       0.0231
@<TRIPOS>BOND
     1     6     5    1
     2    10    12    1
     3    10     8    1
     4     9     8    1
     5     5     8    1
     6     5     7    1
     7     5     1    1
     8     2     1    1
     9     4     1    1
    10     8    11    1
    11     1     3    1
    12    18    15    1
    13    11    15    1
    14    11    13    1
    15    11    14    1
    16    16    15    1
    17    15    17    1
