@<TRIPOS>MOLECULE
/home/jramos/Programacion/GITHUB_REPO_DIR/gecos2/examples/08-Extract_molecules/MD_extract_g16_conformers/MD_extract_000_gaussian.xyz
 18 17 0 0 0
SMALL
GASTEIGER

@<TRIPOS>ATOM
      1 C          13.2613   10.6035   11.9059 C.3     1  UNL1       -0.0629
      2 H          12.9224    9.7046   11.3752 H       1  UNL1        0.0231
      3 H          14.0178   10.2888   12.6372 H       1  UNL1        0.0231
      4 H          13.7654   11.2481   11.1736 H       1  UNL1        0.0231
      5 C          12.1052   11.3126   12.5725 C.3     1  UNL1       -0.0297
      6 H          11.6064   10.6244   13.2833 H       1  UNL1        0.0287
      7 H          11.3341   11.5748   11.8200 H       1  UNL1        0.0287
      8 C          12.5537   12.5753   13.3293 C.3     1  UNL1        0.0548
      9 H          13.4288   12.3485   13.9815 H       1  UNL1        0.0593
     10 O          13.0920   13.5495   12.4647 O.3     1  UNL1       -0.3918
     11 C          11.3864   13.1255   14.1676 C.3     1  UNL1       -0.0297
     12 H          12.4035   13.8056   11.8632 H       1  UNL1        0.2098
     13 H          10.5763   13.4844   13.5009 H       1  UNL1        0.0287
     14 H          10.9435   12.2977   14.7559 H       1  UNL1        0.0287
     15 C          11.8220   14.2335   15.0984 C.3     1  UNL1       -0.0629
     16 H          12.5904   13.8896   15.8036 H       1  UNL1        0.0231
     17 H          10.9774   14.6098   15.6897 H       1  UNL1        0.0231
     18 H          12.2436   15.0847   14.5474 H       1  UNL1        0.0231
@<TRIPOS>BOND
     1     4     1    1
     2     2     1    1
     3     7     5    1
     4    12    10    1
     5     1     5    1
     6     1     3    1
     7    10     8    1
     8     5     6    1
     9     5     8    1
    10     8     9    1
    11     8    11    1
    12    13    11    1
    13    11    14    1
    14    11    15    1
    15    18    15    1
    16    15    17    1
    17    15    16    1
