@<TRIPOS>MOLECULE
/home/jramos/Programacion/GITHUB_REPO_DIR/gecos2/examples/08-Extract_molecules/MD_extract_g16_conformers/MD_extract_008_gaussian.xyz
 18 17 0 0 0
SMALL
GASTEIGER

@<TRIPOS>ATOM
      1 C          11.1968    3.8928    4.3068 C.3     1  UNL1       -0.0629
      2 H          11.5391    4.4962    5.1580 H       1  UNL1        0.0231
      3 H          12.0812    3.6315    3.7115 H       1  UNL1        0.0231
      4 H          10.7862    2.9592    4.7140 H       1  UNL1        0.0231
      5 C          10.1759    4.6316    3.4726 C.3     1  UNL1       -0.0297
      6 H           9.8749    4.0038    2.6107 H       1  UNL1        0.0287
      7 H          10.6301    5.5430    3.0338 H       1  UNL1        0.0287
      8 C           8.9216    5.0053    4.2820 C.3     1  UNL1        0.0548
      9 H           8.5434    4.1207    4.8451 H       1  UNL1        0.0593
     10 O           9.2131    5.9022    5.3293 O.3     1  UNL1       -0.3918
     11 C           7.8330    5.5487    3.3397 C.3     1  UNL1       -0.0297
     12 H           9.5480    6.6983    4.9352 H       1  UNL1        0.2098
     13 H           8.1608    6.5104    2.8956 H       1  UNL1        0.0287
     14 H           7.7137    4.8517    2.4868 H       1  UNL1        0.0287
     15 C           6.5056    5.7260    4.0401 C.3     1  UNL1       -0.0629
     16 H           5.7421    6.1103    3.3517 H       1  UNL1        0.0231
     17 H           6.5796    6.4322    4.8778 H       1  UNL1        0.0231
     18 H           6.1339    4.7762    4.4473 H       1  UNL1        0.0231
@<TRIPOS>BOND
     1    14    11    1
     2     6     5    1
     3    13    11    1
     4     7     5    1
     5    11    15    1
     6    11     8    1
     7    16    15    1
     8     5     8    1
     9     5     1    1
    10     3     1    1
    11    15    18    1
    12    15    17    1
    13     8     9    1
    14     8    10    1
    15     1     4    1
    16     1     2    1
    17    12    10    1
