@<TRIPOS>MOLECULE
/home/jramos/Programacion/GITHUB_REPO_DIR/gecos2/examples/08-Extract_molecules/MD_extract_g16_conformers/MD_extract_002_gaussian.xyz
 18 17 0 0 0
SMALL
GASTEIGER

@<TRIPOS>ATOM
      1 C           5.4213    9.7903   13.8863 C.3     1  UNL1       -0.0629
      2 H           4.6780    8.9978   14.0412 H       1  UNL1        0.0231
      3 H           6.3486    9.4767   14.3815 H       1  UNL1        0.0231
      4 H           5.6274    9.8506   12.8034 H       1  UNL1        0.0231
      5 C           4.9451   11.1256   14.4105 C.3     1  UNL1       -0.0297
      6 H           5.6713   11.9164   14.1294 H       1  UNL1        0.0287
      7 H           4.9343   11.1166   15.5187 H       1  UNL1        0.0287
      8 C           3.5421   11.4937   13.9019 C.3     1  UNL1        0.0548
      9 H           2.7908   10.8318   14.4027 H       1  UNL1        0.0593
     10 O           3.3150   12.8230   14.3406 O.3     1  UNL1       -0.3918
     11 C           3.3600   11.3439   12.3796 C.3     1  UNL1       -0.0297
     12 H           2.4842   13.0950   13.9743 H       1  UNL1        0.2098
     13 H           3.2389   10.2666   12.1464 H       1  UNL1        0.0287
     14 H           2.4054   11.8190   12.0729 H       1  UNL1        0.0287
     15 C           4.4991   11.9074   11.5622 C.3     1  UNL1       -0.0629
     16 H           4.7343   12.9414   11.8450 H       1  UNL1        0.0231
     17 H           4.2644   11.8994   10.4906 H       1  UNL1        0.0231
     18 H           5.4120   11.3041   11.7080 H       1  UNL1        0.0231
@<TRIPOS>BOND
     1    17    15    1
     2    15    18    1
     3    15    16    1
     4    15    11    1
     5    14    11    1
     6    13    11    1
     7    11     8    1
     8     4     1    1
     9     1     2    1
    10     1     3    1
    11     1     5    1
    12     8    10    1
    13     8     9    1
    14     8     5    1
    15    12    10    1
    16     6     5    1
    17     5     7    1
