@<TRIPOS>MOLECULE
/home/jramos/Programacion/GITHUB_REPO_DIR/gecos2/examples/08-Extract_molecules/MD_extract_g16_conformers/MD_extract_011_gaussian.xyz
 18 17 0 0 0
SMALL
GASTEIGER

@<TRIPOS>ATOM
      1 C          10.8416    9.3105    9.3906 C.3     1  UNL11      -0.0629
      2 H          11.9241    9.1294    9.3765 H       1  UNL11       0.0231
      3 H          10.3464    8.3303    9.4204 H       1  UNL11       0.0231
      4 H          10.6074    9.8232   10.3333 H       1  UNL11       0.0231
      5 C          10.4095   10.1215    8.1914 C.3     1  UNL11      -0.0297
      6 H          10.6955    9.5984    7.2503 H       1  UNL11       0.0287
      7 H          10.9553   11.0858    8.1785 H       1  UNL11       0.0287
      8 C           8.8907   10.3766    8.1899 C.3     1  UNL11       0.0548
      9 H           8.5392   10.6072    9.2227 H       1  UNL11       0.0593
     10 O           8.5673   11.5726    7.5178 O.3     1  UNL11      -0.3918
     11 C           8.1130    9.1690    7.6364 C.3     1  UNL11      -0.0297
     12 H           8.8033   11.4550    6.6054 H       1  UNL11       0.2098
     13 H           8.2937    8.3046    8.3060 H       1  UNL11       0.0287
     14 H           7.0257    9.3721    7.6925 H       1  UNL11       0.0287
     15 C           8.4957    8.8054    6.2188 C.3     1  UNL11      -0.0629
     16 H           9.5925    8.7505    6.1100 H       1  UNL11       0.0231
     17 H           8.1307    9.5397    5.4880 H       1  UNL11       0.0231
     18 H           8.0822    7.8310    5.9313 H       1  UNL11       0.0231
@<TRIPOS>BOND
     1    17    15    1
     2    12    10    1
     3    18    15    1
     4    15    16    1
     5    15    11    1
     6    10     8    1
     7    14    11    1
     8    11     8    1
     9    11    13    1
    10     8     9    1
    11     8     5    1
    12     6     5    1
    13     7     5    1
    14     5     1    1
    15     1     3    1
    16     1     2    1
    17     1     4    1
