@<TRIPOS>MOLECULE
/home/jramos/Programacion/GITHUB_REPO_DIR/gecos2/examples/08-Extract_molecules/MD_extract_g16_conformers/MD_extract_006_gaussian.xyz
 18 17 0 0 0
SMALL
GASTEIGER

@<TRIPOS>ATOM
      1 C           2.8640    9.2846    2.0077 C.3     1  UNL1       -0.0629
      2 H           3.0200   10.3515    2.2168 H       1  UNL1        0.0231
      3 H           1.7864    9.0906    2.0870 H       1  UNL1        0.0231
      4 H           3.1530    9.1094    0.9634 H       1  UNL1        0.0231
      5 C           3.6612    8.4079    2.9467 C.3     1  UNL1       -0.0297
      6 H           4.7437    8.6037    2.8112 H       1  UNL1        0.0287
      7 H           3.5135    7.3405    2.6873 H       1  UNL1        0.0287
      8 C           3.2937    8.6480    4.4179 C.3     1  UNL1        0.0548
      9 H           3.2256    9.7470    4.6166 H       1  UNL1        0.0593
     10 O           2.0087    8.0885    4.6302 O.3     1  UNL1       -0.3918
     11 C           4.3529    8.0264    5.3465 C.3     1  UNL1       -0.0297
     12 H           1.9038    8.0214    5.5744 H       1  UNL1        0.2098
     13 H           4.4146    6.9342    5.1685 H       1  UNL1        0.0287
     14 H           5.3505    8.4305    5.0871 H       1  UNL1        0.0287
     15 C           4.0452    8.3017    6.8017 C.3     1  UNL1       -0.0629
     16 H           4.1408    9.3685    7.0437 H       1  UNL1        0.0231
     17 H           4.7197    7.7501    7.4676 H       1  UNL1        0.0231
     18 H           3.0135    8.0024    7.0510 H       1  UNL1        0.0231
@<TRIPOS>BOND
     1     4     1    1
     2     1     3    1
     3     1     2    1
     4     1     5    1
     5     7     5    1
     6     6     5    1
     7     5     8    1
     8     8     9    1
     9     8    10    1
    10     8    11    1
    11    10    12    1
    12    14    11    1
    13    13    11    1
    14    11    15    1
    15    15    16    1
    16    15    18    1
    17    15    17    1
