@<TRIPOS>MOLECULE
/home/jramos/Programacion/GITHUB_REPO_DIR/gecos2/examples/08-Extract_molecules/MD_extract_g16_conformers/MD_extract_024_gaussian.xyz
 18 17 0 0 0
SMALL
GASTEIGER

@<TRIPOS>ATOM
      1 C           5.7459    3.0711    2.4655 C.3     1  UNL1       -0.0629
      2 H           6.4550    2.5668    3.1347 H       1  UNL1        0.0231
      3 H           5.4608    4.0182    2.9389 H       1  UNL1        0.0231
      4 H           6.2866    3.3080    1.5332 H       1  UNL1        0.0231
      5 C           4.5365    2.2105    2.1754 C.3     1  UNL1       -0.0297
      6 H           3.7725    2.7964    1.6264 H       1  UNL1        0.0287
      7 H           4.0516    1.9028    3.1229 H       1  UNL1        0.0287
      8 C           4.9273    0.9688    1.3585 C.3     1  UNL1        0.0548
      9 H           5.7431    0.4163    1.8891 H       1  UNL1        0.0593
     10 O           3.7806    0.1383    1.3193 O.3     1  UNL1       -0.3918
     11 C           5.4072    1.3727   -0.0464 C.3     1  UNL1       -0.0297
     12 H           3.9740   -0.5573    0.7041 H       1  UNL1        0.2098
     13 H           4.5508    1.7214   -0.6568 H       1  UNL1        0.0287
     14 H           6.0780    2.2551    0.0645 H       1  UNL1        0.0287
     15 C           6.1344    0.2530   -0.7540 C.3     1  UNL1       -0.0629
     16 H           5.4879   -0.6207   -0.9171 H       1  UNL1        0.0231
     17 H           7.0077   -0.0904   -0.1830 H       1  UNL1        0.0231
     18 H           6.4942    0.5761   -1.7393 H       1  UNL1        0.0231
@<TRIPOS>BOND
     1    18    15    1
     2    16    15    1
     3    15    17    1
     4    15    11    1
     5    13    11    1
     6    11    14    1
     7    11     8    1
     8    12    10    1
     9    10     8    1
    10     8     9    1
    11     8     5    1
    12     4     1    1
    13     6     5    1
    14     5     1    1
    15     5     7    1
    16     1     3    1
    17     1     2    1
