@<TRIPOS>MOLECULE
/home/jramos/Programacion/GITHUB_REPO_DIR/gecos2/examples/08-Extract_molecules/MD_extract_g16_conformers/MD_extract_018_gaussian.xyz
 18 17 0 0 0
SMALL
GASTEIGER

@<TRIPOS>ATOM
      1 C          10.7718    9.2187    9.4525 C.3     1  UNL1       -0.0629
      2 H          10.6525    8.3016    8.8505 H       1  UNL1        0.0231
      3 H          10.1352    9.1114   10.3403 H       1  UNL1        0.0231
      4 H          11.8126    9.2643    9.7948 H       1  UNL1        0.0231
      5 C          10.3995   10.4384    8.6411 C.3     1  UNL1       -0.0297
      6 H          11.1501   10.6096    7.8433 H       1  UNL1        0.0287
      7 H          10.4295   11.3438    9.2785 H       1  UNL1        0.0287
      8 C           8.9996   10.2848    8.0180 C.3     1  UNL1        0.0548
      9 H           8.2451   10.0754    8.8113 H       1  UNL1        0.0593
     10 O           8.5336   11.5094    7.4996 O.3     1  UNL1       -0.3918
     11 C           9.0039    9.1610    6.9680 C.3     1  UNL1       -0.0297
     12 H           9.1101   11.7520    6.7853 H       1  UNL1        0.2098
     13 H           9.5827    9.4719    6.0751 H       1  UNL1        0.0287
     14 H           9.5579    8.2955    7.3981 H       1  UNL1        0.0287
     15 C           7.6095    8.7433    6.5657 C.3     1  UNL1       -0.0629
     16 H           7.0341    8.3735    7.4250 H       1  UNL1        0.0231
     17 H           7.6362    7.9404    5.8179 H       1  UNL1        0.0231
     18 H           7.0458    9.5799    6.1320 H       1  UNL1        0.0231
@<TRIPOS>BOND
     1    17    15    1
     2    13    11    1
     3    18    15    1
     4    15    11    1
     5    15    16    1
     6    12    10    1
     7    11    14    1
     8    11     8    1
     9    10     8    1
    10     6     5    1
    11     8     5    1
    12     8     9    1
    13     5     7    1
    14     5     1    1
    15     2     1    1
    16     1     4    1
    17     1     3    1
