@<TRIPOS>MOLECULE
/home/jramos/Programacion/GITHUB_REPO_DIR/gecos2/examples/08-Extract_molecules/MD_extract_g16_conformers/MD_extract_002_gaussian.xyz
 18 17 0 0 0
SMALL
GASTEIGER

@<TRIPOS>ATOM
      1 C          10.6887    9.0152    9.0706 C.3     1  UNL11      -0.0629
      2 H          10.1415    8.9072   10.0159 H       1  UNL11       0.0231
      3 H          11.7603    8.9688    9.3006 H       1  UNL11       0.0231
      4 H          10.4464    8.1418    8.4404 H       1  UNL11       0.0231
      5 C          10.3373   10.2993    8.3548 C.3     1  UNL11      -0.0297
      6 H          10.8194   10.3123    7.3553 H       1  UNL11       0.0287
      7 H          10.7636   11.1660    8.8983 H       1  UNL11       0.0287
      8 C           8.8201   10.4992    8.2107 C.3     1  UNL11       0.0548
      9 H           8.3896   10.7368    9.2165 H       1  UNL11       0.0593
     10 O           8.6636   11.6428    7.3868 O.3     1  UNL11      -0.3918
     11 C           8.0691    9.2743    7.6552 C.3     1  UNL11      -0.0297
     12 H           7.7347   11.7400    7.2254 H       1  UNL11       0.2098
     13 H           7.9647    8.5293    8.4699 H       1  UNL11       0.0287
     14 H           7.0318    9.5655    7.3901 H       1  UNL11       0.0287
     15 C           8.7391    8.6249    6.4667 C.3     1  UNL11      -0.0629
     16 H           8.9713    9.3527    5.6788 H       1  UNL11       0.0231
     17 H           8.1041    7.8465    6.0258 H       1  UNL11       0.0231
     18 H           9.6867    8.1483    6.7726 H       1  UNL11       0.0231
@<TRIPOS>BOND
     1    17    15    1
     2    15    18    1
     3    15    16    1
     4    15    11    1
     5    14    11    1
     6    13    11    1
     7    11     8    1
     8     4     1    1
     9     1     2    1
    10     1     3    1
    11     1     5    1
    12     8    10    1
    13     8     9    1
    14     8     5    1
    15    12    10    1
    16     6     5    1
    17     5     7    1
