@<TRIPOS>MOLECULE
/home/jramos/Programacion/GITHUB_REPO_DIR/gecos2/examples/08-Extract_molecules/MD_extract_g16_conformers/MD_extract_004_gaussian.xyz
 18 17 0 0 0
SMALL
GASTEIGER

@<TRIPOS>ATOM
      1 C          10.7779    9.2226    9.4285 C.3     1  UNL11      -0.0629
      2 H          10.6870    8.3188    8.8019 H       1  UNL11       0.0231
      3 H          10.1491    9.0694   10.3153 H       1  UNL11       0.0231
      4 H          11.8179    9.2927    9.7686 H       1  UNL11       0.0231
      5 C          10.3648   10.4528    8.6517 C.3     1  UNL11      -0.0297
      6 H          11.1050   10.6695    7.8557 H       1  UNL11       0.0287
      7 H          10.3709   11.3413    9.3138 H       1  UNL11       0.0287
      8 C           8.9707   10.2703    8.0314 C.3     1  UNL11       0.0548
      9 H           8.2409    9.9912    8.8326 H       1  UNL11       0.0593
     10 O           8.5970   11.5326    7.5091 O.3     1  UNL11      -0.3918
     11 C           8.9961    9.1737    6.9526 C.3     1  UNL11      -0.0297
     12 H           7.8023   11.3920    7.0107 H       1  UNL11       0.2098
     13 H           9.5408    9.5320    6.0567 H       1  UNL11       0.0287
     14 H           9.5940    8.3213    7.3487 H       1  UNL11       0.0287
     15 C           7.6114    8.7036    6.5716 C.3     1  UNL11      -0.0629
     16 H           7.0054    9.5120    6.1389 H       1  UNL11       0.0231
     17 H           7.0612    8.3128    7.4383 H       1  UNL11       0.0231
     18 H           7.6581    7.9008    5.8247 H       1  UNL11       0.0231
@<TRIPOS>BOND
     1    17    15    1
     2    18    15    1
     3    15    16    1
     4    15    11    1
     5     9     8    1
     6     3     1    1
     7    14    11    1
     8    11     8    1
     9    11    13    1
    10     8    10    1
    11     8     5    1
    12    12    10    1
    13     2     1    1
    14     1     5    1
    15     1     4    1
    16     5     7    1
    17     5     6    1
