@<TRIPOS>MOLECULE
/home/jramos/Programacion/GITHUB_REPO_DIR/gecos2/examples/08-Extract_molecules/MD_extract_g16_conformers/MD_extract_022_gaussian.xyz
 18 17 0 0 0
SMALL
GASTEIGER

@<TRIPOS>ATOM
      1 C           2.9995    2.3415   11.6430 C.3     1  UNL1       -0.0629
      2 H           4.0282    2.5888   11.3547 H       1  UNL1        0.0231
      3 H           2.6997    3.0302   12.4514 H       1  UNL1        0.0231
      4 H           2.3544    2.5511   10.7799 H       1  UNL1        0.0231
      5 C           2.8819    0.9037   12.0975 C.3     1  UNL1       -0.0297
      6 H           3.6499    0.6805   12.8647 H       1  UNL1        0.0287
      7 H           3.0963    0.2186   11.2535 H       1  UNL1        0.0287
      8 C           1.4818    0.6175   12.6628 C.3     1  UNL1        0.0548
      9 H           0.7093    0.9034   11.9052 H       1  UNL1        0.0593
     10 O           1.4101   -0.7826   12.8646 O.3     1  UNL1       -0.3918
     11 C           1.2484    1.4098   13.9610 C.3     1  UNL1       -0.0297
     12 H           0.6050   -0.9443   13.3395 H       1  UNL1        0.2098
     13 H           1.8608    0.9867   14.7817 H       1  UNL1        0.0287
     14 H           1.6308    2.4437   13.8011 H       1  UNL1        0.0287
     15 C          -0.2083    1.4505   14.3605 C.3     1  UNL1       -0.0629
     16 H          -0.6080    0.4474   14.5656 H       1  UNL1        0.0231
     17 H          -0.8338    1.8957   13.5749 H       1  UNL1        0.0231
     18 H          -0.3520    2.0470   15.2705 H       1  UNL1        0.0231
@<TRIPOS>BOND
     1     4     1    1
     2     7     5    1
     3     2     1    1
     4     1     5    1
     5     1     3    1
     6     9     8    1
     7     5     8    1
     8     5     6    1
     9     8    10    1
    10     8    11    1
    11    10    12    1
    12    17    15    1
    13    14    11    1
    14    11    15    1
    15    11    13    1
    16    15    16    1
    17    15    18    1
