@<TRIPOS>MOLECULE
/home/jramos/Programacion/GITHUB_REPO_DIR/gecos2/examples/08-Extract_molecules/MD_extract_g16_conformers/MD_extract_016_gaussian.xyz
 18 17 0 0 0
SMALL
GASTEIGER

@<TRIPOS>ATOM
      1 C           1.3558    0.6936    7.8804 C.3     1  UNL1       -0.0629
      2 H           0.8384    0.7368    8.8475 H       1  UNL1        0.0231
      3 H           1.3231   -0.3492    7.5370 H       1  UNL1        0.0231
      4 H           0.7709    1.2903    7.1683 H       1  UNL1        0.0231
      5 C           2.7757    1.1989    8.0007 C.3     1  UNL1       -0.0297
      6 H           3.3227    0.5986    8.7548 H       1  UNL1        0.0287
      7 H           2.7777    2.2387    8.3844 H       1  UNL1        0.0287
      8 C           3.5321    1.1286    6.6665 C.3     1  UNL1        0.0548
      9 H           3.3392    0.1427    6.1735 H       1  UNL1        0.0593
     10 O           3.0069    2.1434    5.8278 O.3     1  UNL1       -0.3918
     11 C           5.0454    1.2968    6.8951 C.3     1  UNL1       -0.0297
     12 H           3.6351    2.2508    5.1201 H       1  UNL1        0.2098
     13 H           5.2475    2.2786    7.3678 H       1  UNL1        0.0287
     14 H           5.3937    0.5362    7.6205 H       1  UNL1        0.0287
     15 C           5.8190    1.1709    5.6014 C.3     1  UNL1       -0.0629
     16 H           5.4136    1.8481    4.8312 H       1  UNL1        0.0231
     17 H           5.7707    0.1520    5.1953 H       1  UNL1        0.0231
     18 H           6.8776    1.4222    5.7387 H       1  UNL1        0.0231
@<TRIPOS>BOND
     1    16    15    1
     2    12    10    1
     3    17    15    1
     4    15    18    1
     5    15    11    1
     6    10     8    1
     7     9     8    1
     8     8    11    1
     9     8     5    1
    10    11    13    1
    11    11    14    1
    12     4     1    1
    13     3     1    1
    14     1     5    1
    15     1     2    1
    16     5     7    1
    17     5     6    1
