@<TRIPOS>MOLECULE
/home/jramos/Programacion/GITHUB_REPO_DIR/gecos2/examples/08-Extract_molecules/MD_extract_g16_conformers/MD_extract_021_gaussian.xyz
 18 17 0 0 0
SMALL
GASTEIGER

@<TRIPOS>ATOM
      1 C           9.4983    1.2434   -0.3759 C.3     1  UNL1       -0.0629
      2 H           9.3567    0.3431    0.2337 H       1  UNL1        0.0231
      3 H          10.4837    1.1703   -0.8671 H       1  UNL1        0.0231
      4 H           8.7371    1.2302   -1.1668 H       1  UNL1        0.0231
      5 C           9.4187    2.5000    0.4619 C.3     1  UNL1       -0.0297
      6 H          10.0859    2.4142    1.3501 H       1  UNL1        0.0287
      7 H           8.3949    2.6388    0.8586 H       1  UNL1        0.0287
      8 C           9.8530    3.7227   -0.3619 C.3     1  UNL1        0.0548
      9 H           9.3088    3.7287   -1.3390 H       1  UNL1        0.0593
     10 O           9.4448    4.8743    0.3526 O.3     1  UNL1       -0.3918
     11 C          11.3678    3.6666   -0.6305 C.3     1  UNL1       -0.0297
     12 H           9.9482    5.6010    0.0106 H       1  UNL1        0.2098
     13 H          11.5702    2.6906   -1.1272 H       1  UNL1        0.0287
     14 H          11.6617    4.4501   -1.3551 H       1  UNL1        0.0287
     15 C          12.1913    3.7796    0.6324 C.3     1  UNL1       -0.0629
     16 H          11.8083    3.0872    1.4017 H       1  UNL1        0.0231
     17 H          12.1539    4.7913    1.0572 H       1  UNL1        0.0231
     18 H          13.2448    3.5368    0.4497 H       1  UNL1        0.0231
@<TRIPOS>BOND
     1    14    11    1
     2     9     8    1
     3     4     1    1
     4    13    11    1
     5     3     1    1
     6    11     8    1
     7    11    15    1
     8     1     2    1
     9     1     5    1
    10     8    10    1
    11     8     5    1
    12    12    10    1
    13    18    15    1
    14     5     7    1
    15     5     6    1
    16    15    17    1
    17    15    16    1
