@<TRIPOS>MOLECULE
/home/jramos/Programacion/GITHUB_REPO_DIR/gecos2/examples/08-Extract_molecules/MD_extract_g16_conformers/MD_extract_014_gaussian.xyz
 18 17 0 0 0
SMALL
GASTEIGER

@<TRIPOS>ATOM
      1 C          11.0595    9.4677    8.5415 C.3     1  UNL11      -0.0629
      2 H          10.8360    8.6307    7.8602 H       1  UNL11       0.0231
      3 H          11.7451    9.0884    9.3103 H       1  UNL11       0.0231
      4 H          11.6117   10.2215    7.9636 H       1  UNL11       0.0231
      5 C           9.8072   10.0340    9.1702 C.3     1  UNL11      -0.0297
      6 H          10.0899   10.8855    9.8213 H       1  UNL11       0.0287
      7 H           9.3558    9.2802    9.8455 H       1  UNL11       0.0287
      8 C           8.7249   10.5090    8.1818 C.3     1  UNL11       0.0548
      9 H           8.0177   11.1690    8.7394 H       1  UNL11       0.0593
     10 O           9.2171   11.4061    7.2170 O.3     1  UNL11      -0.3918
     11 C           7.9104    9.3532    7.5697 C.3     1  UNL11      -0.0297
     12 H           9.8406   10.9289    6.6812 H       1  UNL11       0.2098
     13 H           7.6250    8.6583    8.3844 H       1  UNL11       0.0287
     14 H           6.9566    9.7611    7.1787 H       1  UNL11       0.0287
     15 C           8.5987    8.5856    6.4647 C.3     1  UNL11      -0.0629
     16 H           7.9822    7.7394    6.1347 H       1  UNL11       0.0231
     17 H           9.5691    8.1766    6.7900 H       1  UNL11       0.0231
     18 H           8.7865    9.2093    5.5801 H       1  UNL11       0.0231
@<TRIPOS>BOND
     1    18    15    1
     2    12    10    1
     3    10     8    1
     4    15    16    1
     5    15    17    1
     6    15    11    1
     7     4     1    1
     8    14    11    1
     9    11     8    1
    10    11    13    1
    11     8     9    1
    12     8     5    1
    13     2     1    1
    14     1     5    1
    15     1     3    1
    16     5     6    1
    17     5     7    1
