@<TRIPOS>MOLECULE
/home/jramos/Programacion/GITHUB_REPO_DIR/gecos2/examples/08-Extract_molecules/MD_extract_g16_conformers/MD_extract_010_gaussian.xyz
 18 17 0 0 0
SMALL
GASTEIGER

@<TRIPOS>ATOM
      1 C          11.2416    9.8938    8.8676 C.3     1  UNL11      -0.0629
      2 H          11.9040    9.7854    9.7361 H       1  UNL11       0.0231
      3 H          11.5684   10.7835    8.3129 H       1  UNL11       0.0231
      4 H          11.4085    9.0250    8.2164 H       1  UNL11       0.0231
      5 C           9.7960   10.0002    9.2953 C.3     1  UNL11      -0.0297
      6 H           9.6836   10.8394   10.0121 H       1  UNL11       0.0287
      7 H           9.5029    9.0917    9.8579 H       1  UNL11       0.0287
      8 C           8.8101   10.1934    8.1285 C.3     1  UNL11       0.0548
      9 H           7.7835   10.3207    8.5572 H       1  UNL11       0.0593
     10 O           9.1000   11.3430    7.3536 O.3     1  UNL11      -0.3918
     11 C           8.8112    8.9909    7.1729 C.3     1  UNL11      -0.0297
     12 H           9.2475   12.0530    7.9639 H       1  UNL11       0.2098
     13 H           9.7068    9.0208    6.5196 H       1  UNL11       0.0287
     14 H           8.9047    8.0605    7.7678 H       1  UNL11       0.0287
     15 C           7.5590    8.9342    6.3270 C.3     1  UNL11      -0.0629
     16 H           6.6534    8.8557    6.9436 H       1  UNL11       0.0231
     17 H           7.5749    8.0650    5.6568 H       1  UNL11       0.0231
     18 H           7.4512    9.8296    5.7010 H       1  UNL11       0.0231
@<TRIPOS>BOND
     1    16    15    1
     2    17    15    1
     3    14    11    1
     4    15    11    1
     5    15    18    1
     6    11    13    1
     7    11     8    1
     8     7     5    1
     9     9     8    1
    10     8     5    1
    11     8    10    1
    12     5     6    1
    13     5     1    1
    14     4     1    1
    15     1     2    1
    16     1     3    1
    17    10    12    1
