@<TRIPOS>MOLECULE
/home/jramos/Programacion/GITHUB_REPO_DIR/gecos2/examples/08-Extract_molecules/MD_extract_g16_conformers/MD_extract_016_gaussian.xyz
 18 17 0 0 0
SMALL
GASTEIGER

@<TRIPOS>ATOM
      1 C          10.7749   10.2405    9.8385 C.3     1  UNL11      -0.0629
      2 H          11.8407   10.2111   10.0991 H       1  UNL11       0.0231
      3 H          10.2502    9.5629   10.5255 H       1  UNL11       0.0231
      4 H          10.4146   11.2570   10.0439 H       1  UNL11       0.0231
      5 C          10.5578    9.8509    8.3938 C.3     1  UNL11      -0.0297
      6 H          10.9680    8.8369    8.2152 H       1  UNL11       0.0287
      7 H          11.1287   10.5283    7.7277 H       1  UNL11       0.0287
      8 C           9.0722    9.8607    8.0066 C.3     1  UNL11       0.0548
      9 H           8.4691    9.3628    8.8070 H       1  UNL11       0.0593
     10 O           8.6624   11.2157    7.9338 O.3     1  UNL11      -0.3918
     11 C           8.8577    9.1221    6.6728 C.3     1  UNL11      -0.0297
     12 H           7.8350   11.2151    7.4622 H       1  UNL11       0.2098
     13 H           9.4383    9.6190    5.8701 H       1  UNL11       0.0287
     14 H           9.2687    8.0969    6.7508 H       1  UNL11       0.0287
     15 C           7.3930    9.0657    6.2995 C.3     1  UNL11      -0.0629
     16 H           6.9405   10.0712    6.3220 H       1  UNL11       0.0231
     17 H           6.8197    8.4365    6.9929 H       1  UNL11       0.0231
     18 H           7.2495    8.6610    5.2904 H       1  UNL11       0.0231
@<TRIPOS>BOND
     1    16    15    1
     2    12    10    1
     3    17    15    1
     4    15    18    1
     5    15    11    1
     6    10     8    1
     7     9     8    1
     8     8    11    1
     9     8     5    1
    10    11    13    1
    11    11    14    1
    12     4     1    1
    13     3     1    1
    14     1     5    1
    15     1     2    1
    16     5     7    1
    17     5     6    1
