@<TRIPOS>MOLECULE
/home/jramos/Programacion/GITHUB_REPO_DIR/gecos2/examples/08-Extract_molecules/MD_extract_g16_conformers/MD_extract_009_gaussian.xyz
 18 17 0 0 0
SMALL
GASTEIGER

@<TRIPOS>ATOM
      1 C          10.7777   10.3062    9.8197 C.3     1  UNL11      -0.0629
      2 H          11.8445   10.3324   10.0724 H       1  UNL11       0.0231
      3 H          10.2680    9.7206   10.5961 H       1  UNL11       0.0231
      4 H          10.3948   11.3383    9.8861 H       1  UNL11       0.0231
      5 C          10.5472    9.7304    8.4402 C.3     1  UNL11      -0.0297
      6 H          10.8375    8.6620    8.4221 H       1  UNL11       0.0287
      7 H          11.2026   10.2331    7.7013 H       1  UNL11       0.0287
      8 C           9.0749    9.8661    8.0103 C.3     1  UNL11       0.0548
      9 H           8.4197    9.3715    8.7706 H       1  UNL11       0.0593
     10 O           8.6750   11.2222    7.9097 O.3     1  UNL11      -0.3918
     11 C           8.8546    9.2197    6.6352 C.3     1  UNL11      -0.0297
     12 H           9.0413   11.6615    8.6711 H       1  UNL11       0.2098
     13 H           9.3230    9.8392    5.8446 H       1  UNL11       0.0287
     14 H           9.3836    8.2461    6.6081 H       1  UNL11       0.0287
     15 C           7.3885    9.0110    6.3299 C.3     1  UNL11      -0.0629
     16 H           6.9049    8.3685    7.0780 H       1  UNL11       0.0231
     17 H           7.2537    8.5333    5.3509 H       1  UNL11       0.0231
     18 H           6.8383    9.9608    6.3103 H       1  UNL11       0.0231
@<TRIPOS>BOND
     1     3     1    1
     2     2     1    1
     3     6     5    1
     4     1     4    1
     5     1     5    1
     6     9     8    1
     7    16    15    1
     8     5     8    1
     9     5     7    1
    10     8    11    1
    11     8    10    1
    12    14    11    1
    13    11    15    1
    14    11    13    1
    15    15    17    1
    16    15    18    1
    17    12    10    1
