@<TRIPOS>MOLECULE
/home/jramos/Programacion/GITHUB_REPO_DIR/gecos2/examples/08-Extract_molecules/MD_extract_g16_conformers/MD_extract_008_gaussian.xyz
 18 17 0 0 0
SMALL
GASTEIGER

@<TRIPOS>ATOM
      1 C          10.7845   10.2855    9.8244 C.3     1  UNL11      -0.0629
      2 H          10.5192   11.3475    9.9114 H       1  UNL11       0.0231
      3 H          11.8383   10.1845   10.1142 H       1  UNL11       0.0231
      4 H          10.1853    9.7388   10.5647 H       1  UNL11       0.0231
      5 C          10.5505    9.7639    8.4254 C.3     1  UNL11      -0.0297
      6 H          10.8537    8.6997    8.3695 H       1  UNL11       0.0287
      7 H          11.2028   10.2983    7.7055 H       1  UNL11       0.0287
      8 C           9.0782    9.8882    7.9953 C.3     1  UNL11       0.0548
      9 H           8.4056    9.4822    8.7861 H       1  UNL11       0.0593
     10 O           8.6560   11.2311    7.9287 O.3     1  UNL11      -0.3918
     11 C           8.8563    9.1443    6.6665 C.3     1  UNL11      -0.0297
     12 H           9.1851   11.6618    7.2686 H       1  UNL11       0.2098
     13 H           9.4161    9.6470    5.8519 H       1  UNL11       0.0287
     14 H           9.2918    8.1286    6.7449 H       1  UNL11       0.0287
     15 C           7.3925    9.0426    6.3046 C.3     1  UNL11      -0.0629
     16 H           7.2545    8.5063    5.3570 H       1  UNL11       0.0231
     17 H           6.9321   10.0333    6.1927 H       1  UNL11       0.0231
     18 H           6.8229    8.5042    7.0738 H       1  UNL11       0.0231
@<TRIPOS>BOND
     1    14    11    1
     2     6     5    1
     3    13    11    1
     4     7     5    1
     5    11    15    1
     6    11     8    1
     7    16    15    1
     8     5     8    1
     9     5     1    1
    10     3     1    1
    11    15    18    1
    12    15    17    1
    13     8     9    1
    14     8    10    1
    15     1     4    1
    16     1     2    1
    17    12    10    1
