@<TRIPOS>MOLECULE
/home/jramos/Programacion/GITHUB_REPO_DIR/gecos2/examples/08-Extract_molecules/MD_extract_g16_conformers/MD_extract_004_gaussian.xyz
 18 17 0 0 0
SMALL
GASTEIGER

@<TRIPOS>ATOM
      1 C          -1.2415   15.5617    3.6137 C.3     1  UNL1       -0.0629
      2 H          -1.5836   14.5657    3.2839 H       1  UNL1        0.0231
      3 H          -1.2841   16.2267    2.7413 H       1  UNL1        0.0231
      4 H          -1.9609   15.9370    4.3512 H       1  UNL1        0.0231
      5 C           0.1537   15.4809    4.1920 C.3     1  UNL1       -0.0297
      6 H           0.1382   14.9310    5.1541 H       1  UNL1        0.0287
      7 H           0.5246   16.4963    4.4353 H       1  UNL1        0.0287
      8 C           1.1167   14.7912    3.2129 C.3     1  UNL1        0.0548
      9 H           1.0805   15.3152    2.2247 H       1  UNL1        0.0593
     10 O           2.4166   14.9488    3.7528 O.3     1  UNL1       -0.3918
     11 C           0.7345   13.3126    3.0267 C.3     1  UNL1       -0.0297
     12 H           2.9932   14.4120    3.2246 H       1  UNL1        0.2098
     13 H           0.9750   12.7378    3.9429 H       1  UNL1        0.0287
     14 H          -0.3729   13.2591    2.9186 H       1  UNL1        0.0287
     15 C           1.4041   12.6881    1.8246 C.3     1  UNL1       -0.0629
     16 H           2.4994   12.6877    1.9159 H       1  UNL1        0.0231
     17 H           1.1552   13.2212    0.8970 H       1  UNL1        0.0231
     18 H           1.0912   11.6440    1.6959 H       1  UNL1        0.0231
@<TRIPOS>BOND
     1    17    15    1
     2    18    15    1
     3    15    16    1
     4    15    11    1
     5     9     8    1
     6     3     1    1
     7    14    11    1
     8    11     8    1
     9    11    13    1
    10     8    10    1
    11     8     5    1
    12    12    10    1
    13     2     1    1
    14     1     5    1
    15     1     4    1
    16     5     7    1
    17     5     6    1
