@<TRIPOS>MOLECULE
/home/jramos/Programacion/GITHUB_REPO_DIR/gecos2/examples/08-Extract_molecules/MD_extract_g16_conformers/MD_extract_017_gaussian.xyz
 18 17 0 0 0
SMALL
GASTEIGER

@<TRIPOS>ATOM
      1 C          15.1859   10.7833    5.3619 C.3     1  UNL1       -0.0629
      2 H          14.9656   10.7143    4.2881 H       1  UNL1        0.0231
      3 H          16.1222   10.2380    5.5387 H       1  UNL1        0.0231
      4 H          15.3735   11.8403    5.5909 H       1  UNL1        0.0231
      5 C          14.0532   10.2379    6.2018 C.3     1  UNL1       -0.0297
      6 H          13.1370   10.8363    6.0262 H       1  UNL1        0.0287
      7 H          14.2880   10.3553    7.2786 H       1  UNL1        0.0287
      8 C          13.7529    8.7658    5.8859 C.3     1  UNL1        0.0548
      9 H          13.7398    8.6114    4.7778 H       1  UNL1        0.0593
     10 O          14.8149    7.9929    6.4188 O.3     1  UNL1       -0.3918
     11 C          12.3904    8.3554    6.4742 C.3     1  UNL1       -0.0297
     12 H          14.5015    7.0938    6.4392 H       1  UNL1        0.2098
     13 H          12.4003    8.4888    7.5743 H       1  UNL1        0.0287
     14 H          11.6063    9.0391    6.0950 H       1  UNL1        0.0287
     15 C          12.0433    6.9253    6.1247 C.3     1  UNL1       -0.0629
     16 H          11.8639    6.8007    5.0486 H       1  UNL1        0.0231
     17 H          11.1418    6.5893    6.6510 H       1  UNL1        0.0231
     18 H          12.8634    6.2411    6.3995 H       1  UNL1        0.0231
@<TRIPOS>BOND
     1     2     1    1
     2     9     8    1
     3    16    15    1
     4     1     3    1
     5     1     4    1
     6     1     5    1
     7     8     5    1
     8     8    10    1
     9     8    11    1
    10     6     5    1
    11    14    11    1
    12    15    18    1
    13    15    11    1
    14    15    17    1
    15     5     7    1
    16    10    12    1
    17    11    13    1
