@<TRIPOS>MOLECULE
/home/jramos/Programacion/GITHUB_REPO_DIR/gecos2/examples/08-Extract_molecules/MD_extract_g16_conformers/MD_extract_006_gaussian.xyz
 18 17 0 0 0
SMALL
GASTEIGER

@<TRIPOS>ATOM
      1 C          10.7749   10.2407    9.8383 C.3     1  UNL11      -0.0629
      2 H          10.2503    9.5633   10.5256 H       1  UNL11       0.0231
      3 H          10.4146   11.2572   10.0435 H       1  UNL11       0.0231
      4 H          11.8407   10.2115   10.0990 H       1  UNL11       0.0231
      5 C          10.5578    9.8507    8.3938 C.3     1  UNL11      -0.0297
      6 H          10.9677    8.8364    8.2156 H       1  UNL11       0.0287
      7 H          11.1289   10.5277    7.7275 H       1  UNL11       0.0287
      8 C           9.0721    9.8608    8.0066 C.3     1  UNL11       0.0548
      9 H           8.4689    9.3633    8.8070 H       1  UNL11       0.0593
     10 O           8.6626   11.2159    7.9339 O.3     1  UNL11      -0.3918
     11 C           8.8576    9.1221    6.6729 C.3     1  UNL11      -0.0297
     12 H           7.8355   11.2157    7.4617 H       1  UNL11       0.2098
     13 H           9.4382    9.6191    5.8702 H       1  UNL11       0.0287
     14 H           9.2686    8.0970    6.7512 H       1  UNL11       0.0287
     15 C           7.3929    9.0655    6.2993 C.3     1  UNL11      -0.0629
     16 H           6.8195    8.4362    6.9928 H       1  UNL11       0.0231
     17 H           7.2497    8.6605    5.2903 H       1  UNL11       0.0231
     18 H           6.9402   10.0708    6.3216 H       1  UNL11       0.0231
@<TRIPOS>BOND
     1     4     1    1
     2     1     3    1
     3     1     2    1
     4     1     5    1
     5     7     5    1
     6     6     5    1
     7     5     8    1
     8     8     9    1
     9     8    10    1
    10     8    11    1
    11    10    12    1
    12    14    11    1
    13    13    11    1
    14    11    15    1
    15    15    16    1
    16    15    18    1
    17    15    17    1
