@<TRIPOS>MOLECULE
/home/jramos/Programacion/GITHUB_REPO_DIR/gecos2/examples/08-Extract_molecules/MD_extract_g16_conformers/MD_extract_009_gaussian.xyz
 18 17 0 0 0
SMALL
GASTEIGER

@<TRIPOS>ATOM
      1 C          12.2005   -1.7113    9.0593 C.3     1  UNL1       -0.0629
      2 H          13.0706   -2.3678    8.9381 H       1  UNL1        0.0231
      3 H          11.7587   -1.5607    8.0655 H       1  UNL1        0.0231
      4 H          11.4572   -2.2532    9.6676 H       1  UNL1        0.0231
      5 C          12.5803   -0.3995    9.7095 C.3     1  UNL1       -0.0297
      6 H          13.2420    0.1795    9.0365 H       1  UNL1        0.0287
      7 H          13.1725   -0.5849   10.6278 H       1  UNL1        0.0287
      8 C          11.3371    0.4425   10.0506 C.3     1  UNL1        0.0548
      9 H          10.7363    0.6096    9.1215 H       1  UNL1        0.0593
     10 O          10.5024   -0.2038   10.9964 O.3     1  UNL1       -0.3918
     11 C          11.7511    1.7933   10.6516 C.3     1  UNL1       -0.0297
     12 H          10.4597   -1.1168   10.7288 H       1  UNL1        0.2098
     13 H          12.1474    1.6479   11.6763 H       1  UNL1        0.0287
     14 H          12.5918    2.2065   10.0592 H       1  UNL1        0.0287
     15 C          10.6087    2.7836   10.6733 C.3     1  UNL1       -0.0629
     16 H          10.2188    2.9766    9.6648 H       1  UNL1        0.0231
     17 H          10.9295    3.7467   11.0908 H       1  UNL1        0.0231
     18 H           9.7705    2.4238   11.2842 H       1  UNL1        0.0231
@<TRIPOS>BOND
     1     3     1    1
     2     2     1    1
     3     6     5    1
     4     1     4    1
     5     1     5    1
     6     9     8    1
     7    16    15    1
     8     5     8    1
     9     5     7    1
    10     8    11    1
    11     8    10    1
    12    14    11    1
    13    11    15    1
    14    11    13    1
    15    15    17    1
    16    15    18    1
    17    12    10    1
