@<TRIPOS>MOLECULE
/home/jramos/Programacion/GITHUB_REPO_DIR/gecos2/examples/08-Extract_molecules/MD_extract_g16_conformers/MD_extract_011_gaussian.xyz
 18 17 0 0 0
SMALL
GASTEIGER

@<TRIPOS>ATOM
      1 C          14.7307    3.8571   10.6503 C.3     1  UNL1       -0.0629
      2 H          15.5675    3.3447   11.1422 H       1  UNL1        0.0231
      3 H          13.8441    3.2182   10.7632 H       1  UNL1        0.0231
      4 H          14.5390    4.7829   11.2094 H       1  UNL1        0.0231
      5 C          15.0406    4.1356    9.1981 C.3     1  UNL1       -0.0297
      6 H          15.2709    3.1849    8.6650 H       1  UNL1        0.0287
      7 H          15.9584    4.7523    9.1255 H       1  UNL1        0.0287
      8 C          13.8722    4.8458    8.4894 C.3     1  UNL1        0.0548
      9 H          13.4267    5.6160    9.1615 H       1  UNL1        0.0593
     10 O          14.3243    5.6450    7.4200 O.3     1  UNL1       -0.3918
     11 C          12.7838    3.8491    8.0518 C.3     1  UNL1       -0.0297
     12 H          14.6951    5.0607    6.7695 H       1  UNL1        0.2098
     13 H          12.3666    3.3713    8.9606 H       1  UNL1        0.0287
     14 H          11.9428    4.4002    7.5874 H       1  UNL1        0.0287
     15 C          13.2887    2.7856    7.1019 C.3     1  UNL1       -0.0629
     16 H          14.2201    2.3310    7.4807 H       1  UNL1        0.0231
     17 H          13.5037    3.1883    6.1029 H       1  UNL1        0.0231
     18 H          12.5526    1.9824    6.9745 H       1  UNL1        0.0231
@<TRIPOS>BOND
     1    17    15    1
     2    12    10    1
     3    18    15    1
     4    15    16    1
     5    15    11    1
     6    10     8    1
     7    14    11    1
     8    11     8    1
     9    11    13    1
    10     8     9    1
    11     8     5    1
    12     6     5    1
    13     7     5    1
    14     5     1    1
    15     1     3    1
    16     1     2    1
    17     1     4    1
