@<TRIPOS>MOLECULE
/home/jramos/Programacion/GITHUB_REPO_DIR/gecos2/examples/08-Extract_molecules/MD_extract_g16_conformers/MD_extract_007_gaussian.xyz
 18 17 0 0 0
SMALL
GASTEIGER

@<TRIPOS>ATOM
      1 C           4.9934    6.6845   15.3054 C.3     1  UNL1       -0.0629
      2 H           5.2479    7.6004   15.8521 H       1  UNL1        0.0231
      3 H           4.6850    5.9331   16.0442 H       1  UNL1        0.0231
      4 H           4.1135    6.9051   14.6782 H       1  UNL1        0.0231
      5 C           6.1521    6.2003   14.4622 C.3     1  UNL1       -0.0297
      6 H           6.9881    5.8815   15.1145 H       1  UNL1        0.0287
      7 H           6.5504    7.0310   13.8461 H       1  UNL1        0.0287
      8 C           5.7383    5.0279   13.5539 C.3     1  UNL1        0.0548
      9 H           5.3209    4.2016   14.1823 H       1  UNL1        0.0593
     10 O           4.7425    5.4073   12.6194 O.3     1  UNL1       -0.3918
     11 C           6.9450    4.5145   12.7555 C.3     1  UNL1       -0.0297
     12 H           4.1192    5.9420   13.1018 H       1  UNL1        0.2098
     13 H           7.2232    5.2485   11.9729 H       1  UNL1        0.0287
     14 H           7.8207    4.4489   13.4318 H       1  UNL1        0.0287
     15 C           6.6834    3.1634   12.1293 C.3     1  UNL1       -0.0629
     16 H           5.8440    3.1987   11.4227 H       1  UNL1        0.0231
     17 H           6.4419    2.4047   12.8858 H       1  UNL1        0.0231
     18 H           7.5626    2.8076   11.5769 H       1  UNL1        0.0231
@<TRIPOS>BOND
     1    16    15    1
     2    18    15    1
     3    13    11    1
     4    15    11    1
     5    15    17    1
     6    10    12    1
     7    10     8    1
     8    11    14    1
     9    11     8    1
    10     8     9    1
    11     8     5    1
    12     7     5    1
    13     5     6    1
    14     5     1    1
    15     4     1    1
    16     1     2    1
    17     1     3    1
