@<TRIPOS>MOLECULE
/home/jramos/Programacion/GITHUB_REPO_DIR/gecos2/examples/08-Extract_molecules/MD_extract_g16_conformers/MD_extract_015_gaussian.xyz
 18 17 0 0 0
SMALL
GASTEIGER

@<TRIPOS>ATOM
      1 C          10.7850   10.2875    9.8236 C.3     1  UNL11      -0.0629
      2 H          10.5218   11.3503    9.9080 H       1  UNL11       0.0231
      3 H          11.8385   10.1852   10.1139 H       1  UNL11       0.0231
      4 H          10.1847    9.7439   10.5652 H       1  UNL11       0.0231
      5 C          10.5502    9.7628    8.4260 C.3     1  UNL11      -0.0297
      6 H          10.8523    8.6982    8.3726 H       1  UNL11       0.0287
      7 H          11.2028   10.2948    7.7046 H       1  UNL11       0.0287
      8 C           9.0779    9.8874    7.9957 C.3     1  UNL11       0.0548
      9 H           8.4052    9.4819    8.7867 H       1  UNL11       0.0593
     10 O           8.6563   11.2306    7.9287 O.3     1  UNL11      -0.3918
     11 C           8.8560    9.1430    6.6673 C.3     1  UNL11      -0.0297
     12 H           9.1850   11.6606    7.2676 H       1  UNL11       0.2098
     13 H           9.4179    9.6438    5.8530 H       1  UNL11       0.0287
     14 H           9.2892    8.1264    6.7471 H       1  UNL11       0.0287
     15 C           7.3925    9.0442    6.3036 C.3     1  UNL11      -0.0629
     16 H           6.8210    8.5067    7.0721 H       1  UNL11       0.0231
     17 H           7.2547    8.5082    5.3559 H       1  UNL11       0.0231
     18 H           6.9340   10.0357    6.1913 H       1  UNL11       0.0231
@<TRIPOS>BOND
     1    12    10    1
     2    10     8    1
     3    18    15    1
     4    13    11    1
     5     2     1    1
     6    15    17    1
     7    15    11    1
     8    15    16    1
     9     7     5    1
    10     8    11    1
    11     8     5    1
    12     8     9    1
    13    11    14    1
    14     5     1    1
    15     5     6    1
    16     1     3    1
    17     1     4    1
