@<TRIPOS>MOLECULE
/home/jramos/Programacion/GITHUB_REPO_DIR/gecos2/examples/08-Extract_molecules/MD_extract_g16_conformers/MD_extract_023_gaussian.xyz
 18 17 0 0 0
SMALL
GASTEIGER

@<TRIPOS>ATOM
      1 C          10.7776   10.3059    9.8198 C.3     1  UNL11      -0.0629
      2 H          11.8446   10.3328   10.0721 H       1  UNL11       0.0231
      3 H          10.2689    9.7196   10.5962 H       1  UNL11       0.0231
      4 H          10.3940   11.3376    9.8868 H       1  UNL11       0.0231
      5 C          10.5472    9.7303    8.4401 C.3     1  UNL11      -0.0297
      6 H          10.8374    8.6620    8.4219 H       1  UNL11       0.0287
      7 H          11.2025   10.2332    7.7014 H       1  UNL11       0.0287
      8 C           9.0749    9.8664    8.0102 C.3     1  UNL11       0.0548
      9 H           8.4195    9.3718    8.7704 H       1  UNL11       0.0593
     10 O           8.6750   11.2225    7.9097 O.3     1  UNL11      -0.3918
     11 C           8.8546    9.2200    6.6351 C.3     1  UNL11      -0.0297
     12 H           9.0415   11.6618    8.6711 H       1  UNL11       0.2098
     13 H           9.3224    9.8399    5.8444 H       1  UNL11       0.0287
     14 H           9.3841    8.2467    6.6075 H       1  UNL11       0.0287
     15 C           7.3886    9.0105    6.3300 C.3     1  UNL11      -0.0629
     16 H           7.2537    8.5336    5.3507 H       1  UNL11       0.0231
     17 H           6.8376    9.9598    6.3116 H       1  UNL11       0.0231
     18 H           6.9057    8.3670    7.0777 H       1  UNL11       0.0231
@<TRIPOS>BOND
     1    16    15    1
     2    18    15    1
     3    15    17    1
     4    15    11    1
     5    14    11    1
     6    11    13    1
     7    11     8    1
     8     9     8    1
     9     6     5    1
    10     8     5    1
    11     8    10    1
    12     5     7    1
    13     5     1    1
    14     3     1    1
    15    10    12    1
    16     1     2    1
    17     1     4    1
