@<TRIPOS>MOLECULE
/home/jramos/Programacion/GITHUB_REPO_DIR/gecos2/examples/08-Extract_molecules/MD_extract_g16_conformers/MD_extract_003_gaussian.xyz
 18 17 0 0 0
SMALL
GASTEIGER

@<TRIPOS>ATOM
      1 C          12.4077   13.7257    6.0684 C.3     1  UNL1       -0.0629
      2 H          12.4398   12.6517    6.2934 H       1  UNL1        0.0231
      3 H          12.9878   14.2413    6.8445 H       1  UNL1        0.0231
      4 H          12.9307   13.8756    5.1142 H       1  UNL1        0.0231
      5 C          10.9889   14.2431    6.0173 C.3     1  UNL1       -0.0297
      6 H          10.9865   15.3376    5.8081 H       1  UNL1        0.0287
      7 H          10.5027   14.1230    7.0057 H       1  UNL1        0.0287
      8 C          10.1538   13.5553    4.9274 C.3     1  UNL1        0.0548
      9 H          10.7668   13.4434    3.9978 H       1  UNL1        0.0593
     10 O           9.8154   12.2683    5.4122 O.3     1  UNL1       -0.3918
     11 C           8.8911   14.3784    4.6075 C.3     1  UNL1       -0.0297
     12 H           9.3146   11.8449    4.7281 H       1  UNL1        0.2098
     13 H           8.2253   13.8075    3.9298 H       1  UNL1        0.0287
     14 H           8.3051   14.5394    5.5341 H       1  UNL1        0.0287
     15 C           9.2484   15.7060    3.9794 C.3     1  UNL1       -0.0629
     16 H           9.9740   16.2481    4.6096 H       1  UNL1        0.0231
     17 H           8.3655   16.3447    3.8566 H       1  UNL1        0.0231
     18 H           9.7060   15.5791    2.9897 H       1  UNL1        0.0231
@<TRIPOS>BOND
     1    18    15    1
     2    17    15    1
     3    13    11    1
     4    15    11    1
     5    15    16    1
     6     9     8    1
     7    11     8    1
     8    11    14    1
     9    12    10    1
    10     8    10    1
    11     8     5    1
    12     4     1    1
    13     6     5    1
    14     5     1    1
    15     5     7    1
    16     1     2    1
    17     1     3    1
