@<TRIPOS>MOLECULE
/home/jramos/PycharmProjects/GeCos/data/IsoP.pdb
 28 27 0 0 0
SMALL
GASTEIGER

@<TRIPOS>ATOM
      1 C1          2.1492    1.2616   -8.9453 C.3     1  T_I11      -0.0286
      2 HC1         1.8551    0.2555   -9.2739 H       1  T_I11       0.0313
      3 HC3         1.9878    1.9199   -9.8092 H       1  T_I11       0.0313
      4 C1          3.6219    1.2955   -8.5786 C.2     1  T_I11      -0.0765
      5 C4          4.1775    2.6561   -8.2493 C.3     1  T_I11      -0.0438
      6 H41         5.2182    2.7671   -8.5655 H       1  T_I11       0.0274
      7 H42         3.6142    3.4422   -8.7638 H       1  T_I11       0.0274
      8 H43         4.1122    2.8387   -7.1718 H       1  T_I11       0.0274
      9 C2          4.3597    0.1679   -8.5683 C.2     1  T_I11      -0.0881
     10 H2          3.8827   -0.7743   -8.8350 H       1  T_I11       0.0569
     11 C3          5.8022    0.0400   -8.1917 C.3     1  T_I11      -0.0466
     12 H31         6.2538    0.9819   -7.8715 H       1  T_I11       0.0272
     13 H32         5.9023   -0.6693   -7.3642 H       1  T_I11       0.0272
     14 H33         6.3758   -0.3410   -9.0418 H       1  T_I11       0.0272
     15 C          -2.3876    2.8919   -8.5691 C.3     1  T_I11      -0.0440
     16 HC1        -2.7347    1.8801   -8.8036 H       1  T_I11       0.0274
     17 HC2        -2.9938    3.2683   -7.7386 H       1  T_I11       0.0274
     18 HC3        -2.5708    3.5187   -9.4479 H       1  T_I11       0.0274
     19 C1         -0.9289    2.9238   -8.2006 C.2     1  T_I11      -0.0796
     20 C4         -0.3871    4.2839   -7.8603 C.3     1  T_I11      -0.0440
     21 H41         0.6525    4.4050   -8.1799 H       1  T_I11       0.0274
     22 H42        -0.9575    5.0708   -8.3673 H       1  T_I11       0.0274
     23 H43        -0.4515    4.4575   -6.7819 H       1  T_I11       0.0274
     24 C2         -0.1894    1.7953   -8.1819 C.2     1  T_I11      -0.0850
     25 H2         -0.6625    0.8518   -8.4479 H       1  T_I11       0.0572
     26 C3          1.2554    1.6855   -7.7742 C.3     1  T_I11      -0.0308
     27 H31         1.6098    2.6276   -7.3456 H       1  T_I11       0.0310
     28 H32         1.3301    0.9460   -6.9679 H       1  T_I11       0.0310
@<TRIPOS>BOND
     1     1     4    1
     2     1     2    1
     3     1     3    1
     4     1    26    1
     5     4     9    2
     6     4     5    1
     7     5     6    1
     8     5     7    1
     9     5     8    1
    10     9    11    1
    11     9    10    1
    12    11    12    1
    13    11    13    1
    14    11    14    1
    15    15    19    1
    16    15    16    1
    17    15    17    1
    18    15    18    1
    19    19    24    2
    20    19    20    1
    21    20    21    1
    22    20    22    1
    23    20    23    1
    24    24    26    1
    25    24    25    1
    26    26    27    1
    27    26    28    1
@<TRIPOS>MOLECULE
/home/jramos/PycharmProjects/GeCos/data/IsoP.pdb
 28 27 0 0 0
SMALL
GASTEIGER

@<TRIPOS>ATOM
      1 C1          2.1786    1.1978   -8.9628 C.3     1  T_I11      -0.0286
      2 HC1         1.8897    0.1857   -9.2733 H       1  T_I11       0.0313
      3 HC3         2.0434    1.8274   -9.8525 H       1  T_I11       0.0313
      4 C1          3.6354    1.2104   -8.5503 C.2     1  T_I11      -0.0765
      5 C4          4.1300   -0.0383   -7.8710 C.3     1  T_I11      -0.0438
      6 H41         4.9185    0.1703   -7.1424 H       1  T_I11       0.0274
      7 H42         3.3206   -0.5290   -7.3200 H       1  T_I11       0.0274
      8 H43         4.5107   -0.7442   -8.6153 H       1  T_I11       0.0274
      9 C2          4.4039    2.2873   -8.8034 C.2     1  T_I11      -0.0881
     10 H2          3.9460    3.1466   -9.2945 H       1  T_I11       0.0569
     11 C3          5.8571    2.4652   -8.4962 C.3     1  T_I11      -0.0466
     12 H31         6.3251    1.5715   -8.0786 H       1  T_I11       0.0272
     13 H32         6.3956    2.7213   -9.4141 H       1  T_I11       0.0272
     14 H33         5.9864    3.2861   -7.7849 H       1  T_I11       0.0272
     15 C          -2.2369    2.8508   -9.1418 C.3     1  T_I11      -0.0440
     16 HC1        -2.7164    1.9026   -8.8770 H       1  T_I11       0.0274
     17 HC2        -2.7627    3.6500   -8.6093 H       1  T_I11       0.0274
     18 HC3        -2.3701    3.0024  -10.2180 H       1  T_I11       0.0274
     19 C1         -0.7740    2.8674   -8.7917 C.2     1  T_I11      -0.0796
     20 C4         -0.0651    4.1616   -9.0840 C.3     1  T_I11      -0.0440
     21 H41         1.0072    4.0230   -9.2497 H       1  T_I11       0.0274
     22 H42        -0.4628    4.6214   -9.9947 H       1  T_I11       0.0274
     23 H43        -0.2020    4.8639   -8.2555 H       1  T_I11       0.0274
     24 C2         -0.1697    1.7812   -8.2714 C.2     1  T_I11      -0.0850
     25 H2         -0.7536    0.8756   -8.1115 H       1  T_I11       0.0572
     26 C3          1.2679    1.6920   -7.8341 C.3     1  T_I11      -0.0308
     27 H31         1.6111    2.6648   -7.4600 H       1  T_I11       0.0310
     28 H32         1.3246    1.0110   -6.9755 H       1  T_I11       0.0310
@<TRIPOS>BOND
     1     1     4    1
     2     1     2    1
     3     1     3    1
     4     1    26    1
     5     4     9    2
     6     4     5    1
     7     5     6    1
     8     5     7    1
     9     5     8    1
    10     9    11    1
    11     9    10    1
    12    11    12    1
    13    11    13    1
    14    11    14    1
    15    15    19    1
    16    15    16    1
    17    15    17    1
    18    15    18    1
    19    19    24    2
    20    19    20    1
    21    20    21    1
    22    20    22    1
    23    20    23    1
    24    24    26    1
    25    24    25    1
    26    26    27    1
    27    26    28    1
@<TRIPOS>MOLECULE
/home/jramos/PycharmProjects/GeCos/data/IsoP.pdb
 28 27 0 0 0
SMALL
GASTEIGER

@<TRIPOS>ATOM
      1 C1          2.2163    1.2838   -8.9757 C.3     1  T_I11      -0.0286
      2 HC1         1.9254    0.2637   -9.2549 H       1  T_I11       0.0313
      3 HC3         2.0328    1.8904   -9.8701 H       1  T_I11       0.0313
      4 C1          3.6987    1.3277   -8.6376 C.2     1  T_I11      -0.0765
      5 C4          4.3803    2.6439   -8.8884 C.3     1  T_I11      -0.0438
      6 H41         5.4584    2.5356   -9.0409 H       1  T_I11       0.0274
      7 H42         3.9915    3.1140   -9.7985 H       1  T_I11       0.0274
      8 H43         4.2108    3.3256   -8.0506 H       1  T_I11       0.0274
      9 C2          4.3104    0.2302   -8.1499 C.2     1  T_I11      -0.0881
     10 H2          3.7150   -0.6724   -8.0121 H       1  T_I11       0.0569
     11 C3          5.7262    0.0952   -7.6903 C.3     1  T_I11      -0.0466
     12 H31         6.3040    1.0173   -7.7764 H       1  T_I11       0.0272
     13 H32         5.7367   -0.2018   -6.6357 H       1  T_I11       0.0272
     14 H33         6.2314   -0.6836   -8.2678 H       1  T_I11       0.0272
     15 C           0.7210   -0.9941   -5.1340 C.3     1  T_I11      -0.0440
     16 HC1         1.5327   -0.6207   -4.4989 H       1  T_I11       0.0274
     17 HC2        -0.1969   -0.9941   -4.5374 H       1  T_I11       0.0274
     18 HC3         0.9631   -2.0280   -5.4023 H       1  T_I11       0.0274
     19 C1          0.5391   -0.1648   -6.3744 C.2     1  T_I11      -0.0796
     20 C4         -0.5668   -0.6231   -7.2838 C.3     1  T_I11      -0.0440
     21 H41        -0.4516   -0.2552   -8.3094 H       1  T_I11       0.0274
     22 H42        -0.5837   -1.7160   -7.3467 H       1  T_I11       0.0274
     23 H43        -1.5334   -0.2834   -6.9022 H       1  T_I11       0.0274
     24 C2          1.3513    0.8782   -6.6323 C.2     1  T_I11      -0.0850
     25 H2          2.1434    1.1151   -5.9222 H       1  T_I11       0.0572
     26 C3          1.3128    1.7836   -7.8383 C.3     1  T_I11      -0.0308
     27 H31         0.2860    1.8784   -8.2097 H       1  T_I11       0.0310
     28 H32         1.6092    2.7922   -7.5293 H       1  T_I11       0.0310
@<TRIPOS>BOND
     1     1     4    1
     2     1     2    1
     3     1     3    1
     4     1    26    1
     5     4     9    2
     6     4     5    1
     7     5     6    1
     8     5     7    1
     9     5     8    1
    10     9    11    1
    11     9    10    1
    12    11    12    1
    13    11    13    1
    14    11    14    1
    15    15    19    1
    16    15    16    1
    17    15    17    1
    18    15    18    1
    19    19    24    2
    20    19    20    1
    21    20    21    1
    22    20    22    1
    23    20    23    1
    24    24    26    1
    25    24    25    1
    26    26    27    1
    27    26    28    1
@<TRIPOS>MOLECULE
/home/jramos/PycharmProjects/GeCos/data/IsoP.pdb
 28 27 0 0 0
SMALL
GASTEIGER

@<TRIPOS>ATOM
      1 C1          2.1612    1.3300   -8.9633 C.3     1  T_I11      -0.0286
      2 HC1         1.8542    0.3127   -9.2452 H       1  T_I11       0.0313
      3 HC3         2.0160    1.9468   -9.8605 H       1  T_I11       0.0313
      4 C1          3.6327    1.3456   -8.5902 C.2     1  T_I11      -0.0765
      5 C4          4.2061    2.6973   -8.2619 C.3     1  T_I11      -0.0438
      6 H41         5.2558    2.7858   -8.5561 H       1  T_I11       0.0274
      7 H42         3.6686    3.4879   -8.7958 H       1  T_I11       0.0274
      8 H43         4.1205    2.8908   -7.1872 H       1  T_I11       0.0274
      9 C2          4.3502    0.2052   -8.5739 C.2     1  T_I11      -0.0881
     10 H2          3.8559   -0.7287   -8.8401 H       1  T_I11       0.0569
     11 C3          5.7895    0.0456   -8.1954 C.3     1  T_I11      -0.0466
     12 H31         6.2585    0.9746   -7.8635 H       1  T_I11       0.0272
     13 H32         5.8739   -0.6749   -7.3761 H       1  T_I11       0.0272
     14 H33         6.3566   -0.3386   -9.0481 H       1  T_I11       0.0272
     15 C          -2.4228    0.6149   -8.3394 C.3     1  T_I11      -0.0440
     16 HC1        -2.7295    1.5517   -8.8155 H       1  T_I11       0.0274
     17 HC2        -2.6078   -0.1982   -9.0494 H       1  T_I11       0.0274
     18 HC3        -3.0614    0.4653   -7.4620 H       1  T_I11       0.0274
     19 C1         -0.9749    0.6276   -7.9330 C.2     1  T_I11      -0.0796
     20 C4         -0.4806   -0.6404   -7.2930 C.3     1  T_I11      -0.0440
     21 H41         0.3181   -0.4623   -6.5680 H       1  T_I11       0.0274
     22 H42        -1.2876   -1.1427   -6.7499 H       1  T_I11       0.0274
     23 H43        -0.1083   -1.3262   -8.0616 H       1  T_I11       0.0274
     24 C2         -0.1973    1.7029   -8.1664 C.2     1  T_I11      -0.0850
     25 H2         -0.6327    2.5718   -8.6584 H       1  T_I11       0.0572
     26 C3          1.2630    1.8366   -7.8291 C.3     1  T_I11      -0.0308
     27 H31         1.4652    2.8970   -7.6316 H       1  T_I11       0.0310
     28 H32         1.4990    1.3144   -6.8926 H       1  T_I11       0.0310
@<TRIPOS>BOND
     1     1     4    1
     2     1     2    1
     3     1     3    1
     4     1    26    1
     5     4     9    2
     6     4     5    1
     7     5     6    1
     8     5     7    1
     9     5     8    1
    10     9    11    1
    11     9    10    1
    12    11    12    1
    13    11    13    1
    14    11    14    1
    15    15    19    1
    16    15    16    1
    17    15    17    1
    18    15    18    1
    19    19    24    2
    20    19    20    1
    21    20    21    1
    22    20    22    1
    23    20    23    1
    24    24    26    1
    25    24    25    1
    26    26    27    1
    27    26    28    1
@<TRIPOS>MOLECULE
/home/jramos/PycharmProjects/GeCos/data/IsoP.pdb
 28 27 0 0 0
SMALL
GASTEIGER

@<TRIPOS>ATOM
      1 C1          2.1421    1.2315   -8.8873 C.3     1  T_I11      -0.0286
      2 HC1         1.8350    0.1870   -9.0296 H       1  T_I11       0.0313
      3 HC3         1.9749    1.7260   -9.8541 H       1  T_I11       0.0313
      4 C1          3.6193    1.2548   -8.5316 C.2     1  T_I11      -0.0765
      5 C4          4.0405    0.3344   -7.4165 C.3     1  T_I11      -0.0438
      6 H41         4.8411    0.7672   -6.8098 H       1  T_I11       0.0274
      7 H42         3.2146    0.1277   -6.7295 H       1  T_I11       0.0274
      8 H43         4.3772   -0.6228   -7.8262 H       1  T_I11       0.0274
      9 C2          4.4835    2.0297   -9.2182 C.2     1  T_I11      -0.0881
     10 H2          4.1001    2.6568  -10.0220 H       1  T_I11       0.0569
     11 C3          5.9658    2.1213   -9.0270 C.3     1  T_I11      -0.0466
     12 H31         6.3458    1.4683   -8.2383 H       1  T_I11       0.0272
     13 H32         6.4739    1.8459   -9.9567 H       1  T_I11       0.0272
     14 H33         6.2436    3.1502   -8.7784 H       1  T_I11       0.0272
     15 C          -2.5481    0.9653   -7.9060 C.3     1  T_I11      -0.0440
     16 HC1        -2.7309    1.5775   -8.7959 H       1  T_I11       0.0274
     17 HC2        -2.8416   -0.0627   -8.1421 H       1  T_I11       0.0274
     18 HC3        -3.1983    1.3388   -7.1082 H       1  T_I11       0.0274
     19 C1         -1.1072    1.0105   -7.4665 C.2     1  T_I11      -0.0796
     20 C4         -0.7941    0.1603   -6.2648 C.3     1  T_I11      -0.0440
     21 H41         0.0138    0.5731   -5.6556 H       1  T_I11       0.0274
     22 H42        -1.6659    0.0836   -5.6065 H       1  T_I11       0.0274
     23 H43        -0.5183   -0.8508   -6.5809 H       1  T_I11       0.0274
     24 C2         -0.2049    1.7573   -8.1318 C.2     1  T_I11      -0.0850
     25 H2         -0.5398    2.3323   -8.9952 H       1  T_I11       0.0572
     26 C3          1.2633    1.9068   -7.8240 C.3     1  T_I11      -0.0308
     27 H31         1.4961    2.9778   -7.7824 H       1  T_I11       0.0310
     28 H32         1.4962    1.5141   -6.8320 H       1  T_I11       0.0310
@<TRIPOS>BOND
     1     1     4    1
     2     1     2    1
     3     1     3    1
     4     1    26    1
     5     4     9    2
     6     4     5    1
     7     5     6    1
     8     5     7    1
     9     5     8    1
    10     9    11    1
    11     9    10    1
    12    11    12    1
    13    11    13    1
    14    11    14    1
    15    15    19    1
    16    15    16    1
    17    15    17    1
    18    15    18    1
    19    19    24    2
    20    19    20    1
    21    20    21    1
    22    20    22    1
    23    20    23    1
    24    24    26    1
    25    24    25    1
    26    26    27    1
    27    26    28    1
@<TRIPOS>MOLECULE
/home/jramos/PycharmProjects/GeCos/data/IsoP.pdb
 28 27 0 0 0
SMALL
GASTEIGER

@<TRIPOS>ATOM
      1 C1          2.1771    1.2011   -8.8860 C.3     1  T_I11      -0.0286
      2 HC1         1.8978    0.1716   -9.1461 H       1  T_I11       0.0313
      3 HC3         2.0541    1.8003   -9.7986 H       1  T_I11       0.0313
      4 C1          3.6593    1.2166   -8.5233 C.2     1  T_I11      -0.0765
      5 C4          4.5537    0.7486   -9.6444 C.3     1  T_I11      -0.0438
      6 H41         5.4506    0.2433   -9.2757 H       1  T_I11       0.0274
      7 H42         4.0352    0.0256  -10.2810 H       1  T_I11       0.0274
      8 H43         4.8522    1.5977  -10.2678 H       1  T_I11       0.0274
      9 C2          4.1384    1.6217   -7.3293 C.2     1  T_I11      -0.0881
     10 H2          3.4449    1.9423   -6.5515 H       1  T_I11       0.0569
     11 C3          5.5681    1.7312   -6.9026 C.3     1  T_I11      -0.0466
     12 H31         6.2808    1.4612   -7.6840 H       1  T_I11       0.0272
     13 H32         5.7788    2.7628   -6.6053 H       1  T_I11       0.0272
     14 H33         5.7453    1.0844   -6.0380 H       1  T_I11       0.0272
     15 C          -2.2814    2.8522   -9.2049 C.3     1  T_I11      -0.0440
     16 HC1        -2.7651    1.9042   -8.9465 H       1  T_I11       0.0274
     17 HC2        -2.8089    3.6499   -8.6707 H       1  T_I11       0.0274
     18 HC3        -2.4078    3.0099  -10.2808 H       1  T_I11       0.0274
     19 C1         -0.8227    2.8650   -8.8418 C.2     1  T_I11      -0.0796
     20 C4         -0.1108    4.1629   -9.1119 C.3     1  T_I11      -0.0440
     21 H41         0.9615    4.0233   -9.2804 H       1  T_I11       0.0274
     22 H42        -0.5063    4.6388  -10.0161 H       1  T_I11       0.0274
     23 H43        -0.2462    4.8526   -8.2722 H       1  T_I11       0.0274
     24 C2         -0.2225    1.7791   -8.3186 C.2     1  T_I11      -0.0850
     25 H2         -0.8009    0.8670   -8.1765 H       1  T_I11       0.0572
     26 C3          1.1981    1.7164   -7.8222 C.3     1  T_I11      -0.0308
     27 H31         1.5049    2.7067   -7.4643 H       1  T_I11       0.0310
     28 H32         1.2207    1.0573   -6.9454 H       1  T_I11       0.0310
@<TRIPOS>BOND
     1     1     4    1
     2     1     2    1
     3     1     3    1
     4     1    26    1
     5     4     9    2
     6     4     5    1
     7     5     6    1
     8     5     7    1
     9     5     8    1
    10     9    11    1
    11     9    10    1
    12    11    12    1
    13    11    13    1
    14    11    14    1
    15    15    19    1
    16    15    16    1
    17    15    17    1
    18    15    18    1
    19    19    24    2
    20    19    20    1
    21    20    21    1
    22    20    22    1
    23    20    23    1
    24    24    26    1
    25    24    25    1
    26    26    27    1
    27    26    28    1
@<TRIPOS>MOLECULE
/home/jramos/PycharmProjects/GeCos/data/IsoP.pdb
 28 27 0 0 0
SMALL
GASTEIGER

@<TRIPOS>ATOM
      1 C1          2.1473    1.1736   -9.0074 C.3     1  T_I11      -0.0286
      2 HC1         1.8248    0.1341   -9.1552 H       1  T_I11       0.0313
      3 HC3         1.8964    1.6919   -9.9404 H       1  T_I11       0.0313
      4 C1          3.6516    1.2307   -8.7904 C.2     1  T_I11      -0.0765
      5 C4          4.3058    2.5412   -9.1336 C.3     1  T_I11      -0.0438
      6 H41         5.3862    2.4501   -9.2741 H       1  T_I11       0.0274
      7 H42         3.9055    2.9348  -10.0738 H       1  T_I11       0.0274
      8 H43         4.1212    3.2789   -8.3478 H       1  T_I11       0.0274
      9 C2          4.2995    0.1614   -8.2879 C.2     1  T_I11      -0.0881
     10 H2          3.7216   -0.7376   -8.0742 H       1  T_I11       0.0569
     11 C3          5.7306    0.0675   -7.8667 C.3     1  T_I11      -0.0466
     12 H31         6.2788    1.0062   -7.9659 H       1  T_I11       0.0272
     13 H32         5.7742   -0.2230   -6.8114 H       1  T_I11       0.0272
     14 H33         6.2452   -0.7003   -8.4520 H       1  T_I11       0.0272
     15 C           2.4638    0.3547   -4.3768 C.3     1  T_I11      -0.0440
     16 HC1         1.7774   -0.4960   -4.4510 H       1  T_I11       0.0274
     17 HC2         3.4822   -0.0433   -4.3352 H       1  T_I11       0.0274
     18 HC3         2.2536    0.8705   -3.4334 H       1  T_I11       0.0274
     19 C1          2.3297    1.3021   -5.5378 C.2     1  T_I11      -0.0796
     20 C4          3.2351    2.5020   -5.4655 C.3     1  T_I11      -0.0440
     21 H41         2.9508    3.2983   -6.1562 H       1  T_I11       0.0274
     22 H42         3.2111    2.9368   -4.4610 H       1  T_I11       0.0274
     23 H43         4.2658    2.2076   -5.6858 H       1  T_I11       0.0274
     24 C2          1.5012    1.0228   -6.5645 C.2     1  T_I11      -0.0850
     25 H2          0.9107    0.1077   -6.5205 H       1  T_I11       0.0572
     26 C3          1.3442    1.7957   -7.8507 C.3     1  T_I11      -0.0308
     27 H31         0.2795    1.7872   -8.1175 H       1  T_I11       0.0310
     28 H32         1.6067    2.8507   -7.7300 H       1  T_I11       0.0310
@<TRIPOS>BOND
     1     1     4    1
     2     1     2    1
     3     1     3    1
     4     1    26    1
     5     4     9    2
     6     4     5    1
     7     5     6    1
     8     5     7    1
     9     5     8    1
    10     9    11    1
    11     9    10    1
    12    11    12    1
    13    11    13    1
    14    11    14    1
    15    15    19    1
    16    15    16    1
    17    15    17    1
    18    15    18    1
    19    19    24    2
    20    19    20    1
    21    20    21    1
    22    20    22    1
    23    20    23    1
    24    24    26    1
    25    24    25    1
    26    26    27    1
    27    26    28    1
@<TRIPOS>MOLECULE
/home/jramos/PycharmProjects/GeCos/data/IsoP.pdb
 28 27 0 0 0
SMALL
GASTEIGER

@<TRIPOS>ATOM
      1 C1          2.2117    1.2943   -8.9475 C.3     1  T_I11      -0.0286
      2 HC1         1.9036    0.3005   -9.2973 H       1  T_I11       0.0313
      3 HC3         2.0571    1.9619   -9.8056 H       1  T_I11       0.0313
      4 C1          3.6854    1.2710   -8.5885 C.2     1  T_I11      -0.0765
      5 C4          4.2131   -0.0221   -8.0256 C.3     1  T_I11      -0.0438
      6 H41         4.9444    0.1488   -7.2301 H       1  T_I11       0.0274
      7 H42         3.4160   -0.6288   -7.5859 H       1  T_I11       0.0274
      8 H43         4.6760   -0.6170   -8.8189 H       1  T_I11       0.0274
      9 C2          4.4525    2.3604   -8.7974 C.2     1  T_I11      -0.0881
     10 H2          3.9866    3.2528   -9.2147 H       1  T_I11       0.0569
     11 C3          5.9153    2.4997   -8.5264 C.3     1  T_I11      -0.0466
     12 H31         6.3741    1.5894   -8.1333 H       1  T_I11       0.0272
     13 H32         6.4373    2.7622   -9.4526 H       1  T_I11       0.0272
     14 H33         6.0813    3.3027   -7.8017 H       1  T_I11       0.0272
     15 C           0.7098   -1.0211   -5.1205 C.3     1  T_I11      -0.0440
     16 HC1         1.5182   -0.6467   -4.4831 H       1  T_I11       0.0274
     17 HC2        -0.2088   -1.0326   -4.5264 H       1  T_I11       0.0274
     18 HC3         0.9611   -2.0506   -5.3976 H       1  T_I11       0.0274
     19 C1          0.5264   -0.1844   -6.3576 C.2     1  T_I11      -0.0796
     20 C4         -0.5661   -0.6456   -7.2823 C.3     1  T_I11      -0.0440
     21 H41        -0.4136   -0.3117   -8.3125 H       1  T_I11       0.0274
     22 H42        -0.6091   -1.7396   -7.3122 H       1  T_I11       0.0274
     23 H43        -1.5344   -0.2721   -6.9355 H       1  T_I11       0.0274
     24 C2          1.3291    0.8674   -6.6025 C.2     1  T_I11      -0.0850
     25 H2          2.1094    1.1141   -5.8823 H       1  T_I11       0.0572
     26 C3          1.2948    1.7673   -7.8078 C.3     1  T_I11      -0.0308
     27 H31         0.2700    1.8605   -8.1859 H       1  T_I11       0.0310
     28 H32         1.5817    2.7791   -7.4922 H       1  T_I11       0.0310
@<TRIPOS>BOND
     1     1     4    1
     2     1     2    1
     3     1     3    1
     4     1    26    1
     5     4     9    2
     6     4     5    1
     7     5     6    1
     8     5     7    1
     9     5     8    1
    10     9    11    1
    11     9    10    1
    12    11    12    1
    13    11    13    1
    14    11    14    1
    15    15    19    1
    16    15    16    1
    17    15    17    1
    18    15    18    1
    19    19    24    2
    20    19    20    1
    21    20    21    1
    22    20    22    1
    23    20    23    1
    24    24    26    1
    25    24    25    1
    26    26    27    1
    27    26    28    1
@<TRIPOS>MOLECULE
/home/jramos/PycharmProjects/GeCos/data/IsoP.pdb
 28 27 0 0 0
SMALL
GASTEIGER

@<TRIPOS>ATOM
      1 C1          2.1786    1.2639   -8.9889 C.3     1  T_I11      -0.0286
      2 HC1         1.8951    0.2519   -9.3051 H       1  T_I11       0.0313
      3 HC3         2.0178    1.9056   -9.8640 H       1  T_I11       0.0313
      4 C1          3.6522    1.3147   -8.6214 C.2     1  T_I11      -0.0765
      5 C4          4.1930    2.6750   -8.2766 C.3     1  T_I11      -0.0438
      6 H41         5.2459    2.7859   -8.5549 H       1  T_I11       0.0274
      7 H42         3.6488    3.4577   -8.8143 H       1  T_I11       0.0274
      8 H43         4.0896    2.8620   -7.2028 H       1  T_I11       0.0274
      9 C2          4.3925    0.1881   -8.6167 C.2     1  T_I11      -0.0881
     10 H2          3.9157   -0.7519   -8.8925 H       1  T_I11       0.0569
     11 C3          5.8276    0.0476   -8.2241 C.3     1  T_I11      -0.0466
     12 H31         6.2821    0.9818   -7.8850 H       1  T_I11       0.0272
     13 H32         5.9119   -0.6750   -7.4043 H       1  T_I11       0.0272
     14 H33         6.4096   -0.3282   -9.0704 H       1  T_I11       0.0272
     15 C           0.9629    0.3235   -4.2192 C.3     1  T_I11      -0.0440
     16 HC1         1.6641   -0.4947   -4.4123 H       1  T_I11       0.0274
     17 HC2         1.3751    0.9282   -3.4047 H       1  T_I11       0.0274
     18 HC3         0.0188   -0.1184   -3.8831 H       1  T_I11       0.0274
     19 C1          0.7355    1.1779   -5.4366 C.2     1  T_I11      -0.0796
     20 C4         -0.1792    2.3535   -5.2359 C.3     1  T_I11      -0.0440
     21 H41        -0.6696    2.6597   -6.1652 H       1  T_I11       0.0274
     22 H42        -0.9760    2.1059   -4.5272 H       1  T_I11       0.0274
     23 H43         0.3818    3.2070   -4.8389 H       1  T_I11       0.0274
     24 C2          1.3241    0.8838   -6.6116 C.2     1  T_I11      -0.0850
     25 H2          1.9583   -0.0001   -6.6691 H       1  T_I11       0.0572
     26 C3          1.2244    1.7119   -7.8668 C.3     1  T_I11      -0.0308
     27 H31         0.1992    1.6463   -8.2523 H       1  T_I11       0.0310
     28 H32         1.4165    2.7657   -7.6280 H       1  T_I11       0.0310
@<TRIPOS>BOND
     1     1     4    1
     2     1     2    1
     3     1     3    1
     4     1    26    1
     5     4     9    2
     6     4     5    1
     7     5     6    1
     8     5     7    1
     9     5     8    1
    10     9    11    1
    11     9    10    1
    12    11    12    1
    13    11    13    1
    14    11    14    1
    15    15    19    1
    16    15    16    1
    17    15    17    1
    18    15    18    1
    19    19    24    2
    20    19    20    1
    21    20    21    1
    22    20    22    1
    23    20    23    1
    24    24    26    1
    25    24    25    1
    26    26    27    1
    27    26    28    1
@<TRIPOS>MOLECULE
/home/jramos/PycharmProjects/GeCos/data/IsoP.pdb
 28 27 0 0 0
SMALL
GASTEIGER

@<TRIPOS>ATOM
      1 C1          2.1661    1.2032   -8.9719 C.3     1  T_I11      -0.0286
      2 HC1         1.8515    0.1782   -9.2068 H       1  T_I11       0.0313
      3 HC3         2.0158    1.7767   -9.8972 H       1  T_I11       0.0313
      4 C1          3.6401    1.1871   -8.6024 C.2     1  T_I11      -0.0765
      5 C4          4.0382    0.2802   -7.4714 C.3     1  T_I11      -0.0438
      6 H41         4.7273    0.7804   -6.7819 H       1  T_I11       0.0274
      7 H42         3.1747   -0.0308   -6.8782 H       1  T_I11       0.0274
      8 H43         4.5108   -0.6279   -7.8585 H       1  T_I11       0.0274
      9 C2          4.5211    1.9609   -9.2685 C.2     1  T_I11      -0.0881
     10 H2          4.1566    2.5933  -10.0776 H       1  T_I11       0.0569
     11 C3          5.9916    2.0720   -9.0206 C.3     1  T_I11      -0.0466
     12 H31         6.3427    1.4433   -8.1983 H       1  T_I11       0.0272
     13 H32         6.5408    1.7822   -9.9218 H       1  T_I11       0.0272
     14 H33         6.2465    3.1101   -8.7834 H       1  T_I11       0.0272
     15 C           2.4839    4.9145   -5.8938 C.3     1  T_I11      -0.0440
     16 HC1         2.3488    5.5773   -6.7534 H       1  T_I11       0.0274
     17 HC2         1.8927    5.3147   -5.0642 H       1  T_I11       0.0274
     18 HC3         3.5421    4.9478   -5.6146 H       1  T_I11       0.0274
     19 C1          2.0739    3.4975   -6.1944 C.2     1  T_I11      -0.0796
     20 C4          2.2124    2.5489   -5.0344 C.3     1  T_I11      -0.0440
     21 H41         2.3995    1.5197   -5.3487 H       1  T_I11       0.0274
     22 H42         3.0599    2.8329   -4.4005 H       1  T_I11       0.0274
     23 H43         1.3064    2.5650   -4.4222 H       1  T_I11       0.0274
     24 C2          1.6488    3.1478   -7.4215 C.2     1  T_I11      -0.0850
     25 H2          1.5969    3.9177   -8.1946 H       1  T_I11       0.0572
     26 C3          1.2356    1.7771   -7.8896 C.3     1  T_I11      -0.0308
     27 H31         1.1512    1.0725   -7.0577 H       1  T_I11       0.0310
     28 H32         0.2225    1.8527   -8.3074 H       1  T_I11       0.0310
@<TRIPOS>BOND
     1     1     4    1
     2     1     2    1
     3     1     3    1
     4     1    26    1
     5     4     9    2
     6     4     5    1
     7     5     6    1
     8     5     7    1
     9     5     8    1
    10     9    11    1
    11     9    10    1
    12    11    12    1
    13    11    13    1
    14    11    14    1
    15    15    19    1
    16    15    16    1
    17    15    17    1
    18    15    18    1
    19    19    24    2
    20    19    20    1
    21    20    21    1
    22    20    22    1
    23    20    23    1
    24    24    26    1
    25    24    25    1
    26    26    27    1
    27    26    28    1
@<TRIPOS>MOLECULE
/home/jramos/PycharmProjects/GeCos/data/IsoP.pdb
 28 27 0 0 0
SMALL
GASTEIGER

@<TRIPOS>ATOM
      1 C1          2.1549    1.2289   -8.9798 C.3     1  T_I11      -0.0286
      2 HC1         1.8386    0.1906   -9.1476 H       1  T_I11       0.0313
      3 HC3         1.9840    1.7473   -9.9316 H       1  T_I11       0.0313
      4 C1          3.6316    1.2770   -8.6303 C.2     1  T_I11      -0.0765
      5 C4          4.3276    2.5777   -8.9283 C.3     1  T_I11      -0.0438
      6 H41         5.3886    2.4377   -9.1545 H       1  T_I11       0.0274
      7 H42         3.8898    3.0624   -9.8076 H       1  T_I11       0.0274
      8 H43         4.2339    3.2623   -8.0793 H       1  T_I11       0.0274
      9 C2          4.2345    0.2057   -8.0786 C.2     1  T_I11      -0.0881
     10 H2          3.6410   -0.6917   -7.9047 H       1  T_I11       0.0569
     11 C3          5.6487    0.1003   -7.6040 C.3     1  T_I11      -0.0466
     12 H31         6.2211    1.0222   -7.7273 H       1  T_I11       0.0272
     13 H32         5.6559   -0.1509   -6.5385 H       1  T_I11       0.0272
     14 H33         6.1646   -0.6988   -8.1457 H       1  T_I11       0.0272
     15 C          -2.5956    2.1262   -7.6952 C.3     1  T_I11      -0.0440
     16 HC1        -2.7420    1.7419   -8.7108 H       1  T_I11       0.0274
     17 HC2        -3.1420    1.4702   -7.0092 H       1  T_I11       0.0274
     18 HC3        -3.0436    3.1253   -7.6513 H       1  T_I11       0.0274
     19 C1         -1.1436    2.1895   -7.3150 C.2     1  T_I11      -0.0796
     20 C4         -0.8749    2.6667   -5.9108 C.3     1  T_I11      -0.0440
     21 H41         0.1305    3.0812   -5.7952 H       1  T_I11       0.0274
     22 H42        -1.5766    3.4616   -5.6337 H       1  T_I11       0.0274
     23 H43        -0.9935    1.8402   -5.2029 H       1  T_I11       0.0274
     24 C2         -0.1719    1.8445   -8.1843 C.2     1  T_I11      -0.0850
     25 H2         -0.4552    1.5267   -9.1845 H       1  T_I11       0.0572
     26 C3          1.3013    1.8535   -7.8668 C.3     1  T_I11      -0.0308
     27 H31         1.6225    2.8880   -7.7018 H       1  T_I11       0.0310
     28 H32         1.4703    1.2935   -6.9386 H       1  T_I11       0.0310
@<TRIPOS>BOND
     1     1     4    1
     2     1     2    1
     3     1     3    1
     4     1    26    1
     5     4     9    2
     6     4     5    1
     7     5     6    1
     8     5     7    1
     9     5     8    1
    10     9    11    1
    11     9    10    1
    12    11    12    1
    13    11    13    1
    14    11    14    1
    15    15    19    1
    16    15    16    1
    17    15    17    1
    18    15    18    1
    19    19    24    2
    20    19    20    1
    21    20    21    1
    22    20    22    1
    23    20    23    1
    24    24    26    1
    25    24    25    1
    26    26    27    1
    27    26    28    1
@<TRIPOS>MOLECULE
/home/jramos/PycharmProjects/GeCos/data/IsoP.pdb
 28 27 0 0 0
SMALL
GASTEIGER

@<TRIPOS>ATOM
      1 C1          2.1589    1.1880   -8.8718 C.3     1  T_I11      -0.0286
      2 HC1         1.8678    0.1531   -9.0858 H       1  T_I11       0.0313
      3 HC3         1.9814    1.7442   -9.8030 H       1  T_I11       0.0313
      4 C1          3.6377    1.2112   -8.5186 C.2     1  T_I11      -0.0765
      5 C4          4.0531    0.3457   -7.3614 C.3     1  T_I11      -0.0438
      6 H41         4.8479    0.8085   -6.7703 H       1  T_I11       0.0274
      7 H42         3.2279    0.1673   -6.6660 H       1  T_I11       0.0274
      8 H43         4.3945   -0.6283   -7.7249 H       1  T_I11       0.0274
      9 C2          4.5014    1.9651   -9.2244 C.2     1  T_I11      -0.0881
     10 H2          4.1232    2.5655  -10.0520 H       1  T_I11       0.0569
     11 C3          5.9800    2.0802   -9.0102 C.3     1  T_I11      -0.0466
     12 H31         6.3515    1.4584   -8.1935 H       1  T_I11       0.0272
     13 H32         6.5092    1.7804   -9.9203 H       1  T_I11       0.0272
     14 H33         6.2398    3.1203   -8.7901 H       1  T_I11       0.0272
     15 C           1.4096    5.6631   -7.7532 C.3     1  T_I11      -0.0440
     16 HC1         2.2153    5.6797   -7.0125 H       1  T_I11       0.0274
     17 HC2         1.7799    6.1575   -8.6573 H       1  T_I11       0.0274
     18 HC3         0.5749    6.2484   -7.3515 H       1  T_I11       0.0274
     19 C1          0.9600    4.2654   -8.0767 C.2     1  T_I11      -0.0796
     20 C4         -0.1049    4.1591   -9.1329 C.3     1  T_I11      -0.0440
     21 H41        -0.7614    3.2988   -8.9782 H       1  T_I11       0.0274
     22 H42        -0.7492    5.0440   -9.1261 H       1  T_I11       0.0274
     23 H43         0.3559    4.0757  -10.1222 H       1  T_I11       0.0274
     24 C2          1.5261    3.2001   -7.4804 C.2     1  T_I11      -0.0850
     25 H2          2.3118    3.3631   -6.7439 H       1  T_I11       0.0572
     26 C3          1.2360    1.7534   -7.7795 C.3     1  T_I11      -0.0308
     27 H31         1.3285    1.1824   -6.8496 H       1  T_I11       0.0310
     28 H32         0.1943    1.6139   -8.0888 H       1  T_I11       0.0310
@<TRIPOS>BOND
     1     1     4    1
     2     1     2    1
     3     1     3    1
     4     1    26    1
     5     4     9    2
     6     4     5    1
     7     5     6    1
     8     5     7    1
     9     5     8    1
    10     9    11    1
    11     9    10    1
    12    11    12    1
    13    11    13    1
    14    11    14    1
    15    15    19    1
    16    15    16    1
    17    15    17    1
    18    15    18    1
    19    19    24    2
    20    19    20    1
    21    20    21    1
    22    20    22    1
    23    20    23    1
    24    24    26    1
    25    24    25    1
    26    26    27    1
    27    26    28    1
@<TRIPOS>MOLECULE
/home/jramos/PycharmProjects/GeCos/data/IsoP.pdb
 28 27 0 0 0
SMALL
GASTEIGER

@<TRIPOS>ATOM
      1 C1          2.1740    1.2648   -9.0656 C.3     1  T_I11      -0.0286
      2 HC1         1.8241    0.2567   -9.3255 H       1  T_I11       0.0313
      3 HC3         1.9748    1.8757   -9.9554 H       1  T_I11       0.0313
      4 C1          3.6682    1.2234   -8.7905 C.2     1  T_I11      -0.0765
      5 C4          4.4511    2.4459   -9.1926 C.3     1  T_I11      -0.0438
      6 H41         5.4467    2.1835   -9.5649 H       1  T_I11       0.0274
      7 H42         3.9518    2.9874  -10.0030 H       1  T_I11       0.0274
      8 H43         4.5671    3.1302   -8.3484 H       1  T_I11       0.0274
      9 C2          4.2246    0.1497   -8.1950 C.2     1  T_I11      -0.0881
     10 H2          3.5874   -0.6971   -7.9435 H       1  T_I11       0.0569
     11 C3          5.6420    0.0159   -7.7351 C.3     1  T_I11      -0.0466
     12 H31         6.2268    0.9309   -7.8673 H       1  T_I11       0.0272
     13 H32         5.6537   -0.2222   -6.6671 H       1  T_I11       0.0272
     14 H33         6.1392   -0.7943   -8.2743 H       1  T_I11       0.0272
     15 C           2.8621    4.9045   -6.0837 C.3     1  T_I11      -0.0440
     16 HC1         2.2973    5.6071   -6.7031 H       1  T_I11       0.0274
     17 HC2         2.6542    5.1393   -5.0354 H       1  T_I11       0.0274
     18 HC3         3.9275    5.0727   -6.2735 H       1  T_I11       0.0274
     19 C1          2.5119    3.4707   -6.3808 C.2     1  T_I11      -0.0796
     20 C4          3.1887    2.4719   -5.4815 C.3     1  T_I11      -0.0440
     21 H41         3.0669    1.4383   -5.8044 H       1  T_I11       0.0274
     22 H42         4.2656    2.6685   -5.4423 H       1  T_I11       0.0274
     23 H43         2.7864    2.5483   -4.4638 H       1  T_I11       0.0274
     24 C2          1.7109    3.1559   -7.4204 C.2     1  T_I11      -0.0850
     25 H2          1.3011    3.9616   -8.0282 H       1  T_I11       0.0572
     26 C3          1.3322    1.7740   -7.8816 C.3     1  T_I11      -0.0308
     27 H31         1.3746    1.0521   -7.0565 H       1  T_I11       0.0310
     28 H32         0.2793    1.7964   -8.1862 H       1  T_I11       0.0310
@<TRIPOS>BOND
     1     1     4    1
     2     1     2    1
     3     1     3    1
     4     1    26    1
     5     4     9    2
     6     4     5    1
     7     5     6    1
     8     5     7    1
     9     5     8    1
    10     9    11    1
    11     9    10    1
    12    11    12    1
    13    11    13    1
    14    11    14    1
    15    15    19    1
    16    15    16    1
    17    15    17    1
    18    15    18    1
    19    19    24    2
    20    19    20    1
    21    20    21    1
    22    20    22    1
    23    20    23    1
    24    24    26    1
    25    24    25    1
    26    26    27    1
    27    26    28    1
@<TRIPOS>MOLECULE
/home/jramos/PycharmProjects/GeCos/data/IsoP.pdb
 28 27 0 0 0
SMALL
GASTEIGER

@<TRIPOS>ATOM
      1 C1          2.1688    1.3269   -8.9323 C.3     1  T_I11      -0.0286
      2 HC1         1.8786    0.2982   -9.1885 H       1  T_I11       0.0313
      3 HC3         2.0420    1.9268   -9.8433 H       1  T_I11       0.0313
      4 C1          3.6501    1.3119   -8.5709 C.2     1  T_I11      -0.0765
      5 C4          4.5423    0.7831   -9.6653 C.3     1  T_I11      -0.0438
      6 H41         5.4057    0.2400   -9.2692 H       1  T_I11       0.0274
      7 H42         4.0038    0.0752  -10.3045 H       1  T_I11       0.0274
      8 H43         4.8966    1.6066  -10.2930 H       1  T_I11       0.0274
      9 C2          4.1293    1.7230   -7.3763 C.2     1  T_I11      -0.0881
     10 H2          3.4408    2.0884   -6.6173 H       1  T_I11       0.0569
     11 C3          5.5509    1.7644   -6.9185 C.3     1  T_I11      -0.0466
     12 H31         6.2669    1.4566   -7.6810 H       1  T_I11       0.0272
     13 H32         5.8006    2.7863   -6.6173 H       1  T_I11       0.0272
     14 H33         5.6719    1.1139   -6.0471 H       1  T_I11       0.0272
     15 C          -2.4583    0.5968   -8.3533 C.3     1  T_I11      -0.0440
     16 HC1        -2.7807    1.5336   -8.8184 H       1  T_I11       0.0274
     17 HC2        -2.6502   -0.2150   -9.0597 H       1  T_I11       0.0274
     18 HC3        -3.0777    0.4406   -7.4639 H       1  T_I11       0.0274
     19 C1         -1.0040    0.6222   -7.9700 C.2     1  T_I11      -0.0796
     20 C4         -0.4937   -0.6318   -7.3114 C.3     1  T_I11      -0.0440
     21 H41         0.2884   -0.4335   -6.5751 H       1  T_I11       0.0274
     22 H42        -1.2982   -1.1469   -6.7763 H       1  T_I11       0.0274
     23 H43        -0.0957   -1.3150   -8.0681 H       1  T_I11       0.0274
     24 C2         -0.2379    1.7009   -8.2247 C.2     1  T_I11      -0.0850
     25 H2         -0.6797    2.5619   -8.7250 H       1  T_I11       0.0572
     26 C3          1.2106    1.8575   -7.8562 C.3     1  T_I11      -0.0308
     27 H31         1.4049    2.9227   -7.6786 H       1  T_I11       0.0310
     28 H32         1.3947    1.3579   -6.8983 H       1  T_I11       0.0310
@<TRIPOS>BOND
     1     1     4    1
     2     1     2    1
     3     1     3    1
     4     1    26    1
     5     4     9    2
     6     4     5    1
     7     5     6    1
     8     5     7    1
     9     5     8    1
    10     9    11    1
    11     9    10    1
    12    11    12    1
    13    11    13    1
    14    11    14    1
    15    15    19    1
    16    15    16    1
    17    15    17    1
    18    15    18    1
    19    19    24    2
    20    19    20    1
    21    20    21    1
    22    20    22    1
    23    20    23    1
    24    24    26    1
    25    24    25    1
    26    26    27    1
    27    26    28    1
@<TRIPOS>MOLECULE
/home/jramos/PycharmProjects/GeCos/data/IsoP.pdb
 28 27 0 0 0
SMALL
GASTEIGER

@<TRIPOS>ATOM
      1 C1          2.1605    1.1856   -8.9490 C.3     1  T_I11      -0.0286
      2 HC1         1.8866    0.1513   -9.1951 H       1  T_I11       0.0313
      3 HC3         1.9763    1.7642   -9.8633 H       1  T_I11       0.0313
      4 C1          3.6379    1.2407   -8.6035 C.2     1  T_I11      -0.0765
      5 C4          4.4790    2.1298   -9.4782 C.3     1  T_I11      -0.0438
      6 H41         5.5052    1.7630   -9.5769 H       1  T_I11       0.0274
      7 H42         4.0778    2.1752  -10.4969 H       1  T_I11       0.0274
      8 H43         4.5021    3.1468   -9.0752 H       1  T_I11       0.0274
      9 C2          4.1284    0.5191   -7.5756 C.2     1  T_I11      -0.0881
     10 H2          3.4440   -0.1127   -7.0099 H       1  T_I11       0.0569
     11 C3          5.5347    0.4971   -7.0674 C.3     1  T_I11      -0.0466
     12 H31         6.2075    1.1609   -7.6142 H       1  T_I11       0.0272
     13 H32         5.5461    0.8082   -6.0180 H       1  T_I11       0.0272
     14 H33         5.9336   -0.5197   -7.1268 H       1  T_I11       0.0272
     15 C          -2.2449    2.8577   -9.1528 C.3     1  T_I11      -0.0440
     16 HC1        -2.7232    1.9091   -8.8862 H       1  T_I11       0.0274
     17 HC2        -2.7745    3.6562   -8.6233 H       1  T_I11       0.0274
     18 HC3        -2.3750    3.0075  -10.2290 H       1  T_I11       0.0274
     19 C1         -0.7832    2.8774   -8.7956 C.2     1  T_I11      -0.0796
     20 C4         -0.0709    4.1689   -9.0946 C.3     1  T_I11      -0.0440
     21 H41         0.9967    4.0178   -9.2904 H       1  T_I11       0.0274
     22 H42        -0.4843    4.6403   -9.9912 H       1  T_I11       0.0274
     23 H43        -0.1775    4.8636   -8.2568 H       1  T_I11       0.0274
     24 C2         -0.1800    1.7977   -8.2651 C.2     1  T_I11      -0.0850
     25 H2         -0.7600    0.8909   -8.1020 H       1  T_I11       0.0572
     26 C3          1.2593    1.7191   -7.8288 C.3     1  T_I11      -0.0308
     27 H31         1.6117    2.6986   -7.4849 H       1  T_I11       0.0310
     28 H32         1.3097    1.0614   -6.9519 H       1  T_I11       0.0310
@<TRIPOS>BOND
     1     1     4    1
     2     1     2    1
     3     1     3    1
     4     1    26    1
     5     4     9    2
     6     4     5    1
     7     5     6    1
     8     5     7    1
     9     5     8    1
    10     9    11    1
    11     9    10    1
    12    11    12    1
    13    11    13    1
    14    11    14    1
    15    15    19    1
    16    15    16    1
    17    15    17    1
    18    15    18    1
    19    19    24    2
    20    19    20    1
    21    20    21    1
    22    20    22    1
    23    20    23    1
    24    24    26    1
    25    24    25    1
    26    26    27    1
    27    26    28    1
@<TRIPOS>MOLECULE
/home/jramos/PycharmProjects/GeCos/data/IsoP.pdb
 28 27 0 0 0
SMALL
GASTEIGER

@<TRIPOS>ATOM
      1 C1          2.1728    1.1747   -8.9530 C.3     1  T_I11      -0.0286
      2 HC1         1.8987    0.1510   -9.2399 H       1  T_I11       0.0313
      3 HC3         2.0179    1.7765   -9.8582 H       1  T_I11       0.0313
      4 C1          3.6427    1.2179   -8.5732 C.2     1  T_I11      -0.0765
      5 C4          4.2136   -0.0436   -7.9811 C.3     1  T_I11      -0.0438
      6 H41         4.9356    0.1692   -7.1871 H       1  T_I11       0.0274
      7 H42         3.4366   -0.6684   -7.5320 H       1  T_I11       0.0274
      8 H43         4.7007   -0.6369   -8.7614 H       1  T_I11       0.0274
      9 C2          4.3805    2.3225   -8.8051 C.2     1  T_I11      -0.0881
     10 H2          3.8933    3.1912   -9.2483 H       1  T_I11       0.0569
     11 C3          5.8404    2.5069   -8.5309 C.3     1  T_I11      -0.0466
     12 H31         6.3216    1.6183   -8.1168 H       1  T_I11       0.0272
     13 H32         6.3585    2.7621   -9.4603 H       1  T_I11       0.0272
     14 H33         5.9817    3.3298   -7.8241 H       1  T_I11       0.0272
     15 C           1.4737    0.5657   -4.1279 C.3     1  T_I11      -0.0440
     16 HC1         1.6955   -0.4713   -4.4042 H       1  T_I11       0.0274
     17 HC2         2.3201    0.9353   -3.5395 H       1  T_I11       0.0274
     18 HC3         0.5821    0.5628   -3.4940 H       1  T_I11       0.0274
     19 C1          1.2631    1.4436   -5.3336 C.2     1  T_I11      -0.0796
     20 C4          1.0555    2.9000   -5.0288 C.3     1  T_I11      -0.0440
     21 H41         0.4567    3.4006   -5.7950 H       1  T_I11       0.0274
     22 H42         0.5108    3.0221   -4.0856 H       1  T_I11       0.0274
     23 H43         2.0182    3.4136   -4.9384 H       1  T_I11       0.0274
     24 C2          1.2672    0.9237   -6.5752 C.2     1  T_I11      -0.0850
     25 H2          1.3614   -0.1535   -6.6868 H       1  T_I11       0.0572
     26 C3          1.2056    1.6932   -7.8715 C.3     1  T_I11      -0.0308
     27 H31         0.1833    1.6205   -8.2615 H       1  T_I11       0.0310
     28 H32         1.4099    2.7586   -7.7092 H       1  T_I11       0.0310
@<TRIPOS>BOND
     1     1     4    1
     2     1     2    1
     3     1     3    1
     4     1    26    1
     5     4     9    2
     6     4     5    1
     7     5     6    1
     8     5     7    1
     9     5     8    1
    10     9    11    1
    11     9    10    1
    12    11    12    1
    13    11    13    1
    14    11    14    1
    15    15    19    1
    16    15    16    1
    17    15    17    1
    18    15    18    1
    19    19    24    2
    20    19    20    1
    21    20    21    1
    22    20    22    1
    23    20    23    1
    24    24    26    1
    25    24    25    1
    26    26    27    1
    27    26    28    1
@<TRIPOS>MOLECULE
/home/jramos/PycharmProjects/GeCos/data/IsoP.pdb
 28 27 0 0 0
SMALL
GASTEIGER

@<TRIPOS>ATOM
      1 C1          2.1921    1.2043   -8.8775 C.3     1  T_I11      -0.0286
      2 HC1         1.8989    0.1765   -9.1283 H       1  T_I11       0.0313
      3 HC3         2.0432    1.7921   -9.7942 H       1  T_I11       0.0313
      4 C1          3.6796    1.1962   -8.5452 C.2     1  T_I11      -0.0765
      5 C4          4.5722    1.4137   -9.7384 C.3     1  T_I11      -0.0438
      6 H41         5.5622    0.9668   -9.6141 H       1  T_I11       0.0274
      7 H42         4.1394    0.9517  -10.6327 H       1  T_I11       0.0274
      8 H43         4.6887    2.4857   -9.9292 H       1  T_I11       0.0274
      9 C2          4.1468    1.0095   -7.2932 C.2     1  T_I11      -0.0881
     10 H2          3.4409    0.8280   -6.4853 H       1  T_I11       0.0569
     11 C3          5.5700    1.0441   -6.8331 C.3     1  T_I11      -0.0466
     12 H31         6.2809    1.2994   -7.6214 H       1  T_I11       0.0272
     13 H32         5.6765    1.7947   -6.0421 H       1  T_I11       0.0272
     14 H33         5.8503    0.0715   -6.4180 H       1  T_I11       0.0272
     15 C           1.3587    5.6729   -7.7323 C.3     1  T_I11      -0.0440
     16 HC1         2.1580    5.6730   -6.9833 H       1  T_I11       0.0274
     17 HC2         1.7372    6.1907   -8.6201 H       1  T_I11       0.0274
     18 HC3         0.5199    6.2452   -7.3245 H       1  T_I11       0.0274
     19 C1          0.9160    4.2798   -8.0942 C.2     1  T_I11      -0.0796
     20 C4         -0.1411    4.2090   -9.1620 C.3     1  T_I11      -0.0440
     21 H41        -0.7584    3.3111   -9.0836 H       1  T_I11       0.0274
     22 H42        -0.8236    5.0622   -9.0858 H       1  T_I11       0.0274
     23 H43         0.3240    4.2301  -10.1526 H       1  T_I11       0.0274
     24 C2          1.4812    3.2061   -7.5137 C.2     1  T_I11      -0.0850
     25 H2          2.2565    3.3688   -6.7626 H       1  T_I11       0.0572
     26 C3          1.2173    1.7555   -7.8223 C.3     1  T_I11      -0.0308
     27 H31         1.2707    1.1758   -6.8939 H       1  T_I11       0.0310
     28 H32         0.1939    1.6148   -8.1848 H       1  T_I11       0.0310
@<TRIPOS>BOND
     1     1     4    1
     2     1     2    1
     3     1     3    1
     4     1    26    1
     5     4     9    2
     6     4     5    1
     7     5     6    1
     8     5     7    1
     9     5     8    1
    10     9    11    1
    11     9    10    1
    12    11    12    1
    13    11    13    1
    14    11    14    1
    15    15    19    1
    16    15    16    1
    17    15    17    1
    18    15    18    1
    19    19    24    2
    20    19    20    1
    21    20    21    1
    22    20    22    1
    23    20    23    1
    24    24    26    1
    25    24    25    1
    26    26    27    1
    27    26    28    1
@<TRIPOS>MOLECULE
/home/jramos/PycharmProjects/GeCos/data/IsoP.pdb
 28 27 0 0 0
SMALL
GASTEIGER

@<TRIPOS>ATOM
      1 C1          2.1788    1.2808   -9.0112 C.3     1  T_I11      -0.0286
      2 HC1         1.8770    0.2581   -9.2741 H       1  T_I11       0.0313
      3 HC3         2.0317    1.8634   -9.9299 H       1  T_I11       0.0313
      4 C1          3.6497    1.2904   -8.6315 C.2     1  T_I11      -0.0765
      5 C4          4.4086    2.5476   -8.9622 C.3     1  T_I11      -0.0438
      6 H41         5.4441    2.3395   -9.2476 H       1  T_I11       0.0274
      7 H42         3.9582    3.0666   -9.8151 H       1  T_I11       0.0274
      8 H43         4.4096    3.2319   -8.1084 H       1  T_I11       0.0274
      9 C2          4.2161    0.2087   -8.0578 C.2     1  T_I11      -0.0881
     10 H2          3.5932   -0.6654   -7.8705 H       1  T_I11       0.0569
     11 C3          5.6293    0.0711   -7.5894 C.3     1  T_I11      -0.0466
     12 H31         6.2189    0.9838   -7.7078 H       1  T_I11       0.0272
     13 H32         5.6370   -0.1876   -6.5255 H       1  T_I11       0.0272
     14 H33         6.1269   -0.7323   -8.1412 H       1  T_I11       0.0272
     15 C           1.8468    5.0710   -5.8594 C.3     1  T_I11      -0.0440
     16 HC1         2.1721    5.6222   -6.7481 H       1  T_I11       0.0274
     17 HC2         0.9944    5.6022   -5.4257 H       1  T_I11       0.0274
     18 HC3         2.6743    5.0930   -5.1412 H       1  T_I11       0.0274
     19 C1          1.4714    3.6476   -6.1749 C.2     1  T_I11      -0.0796
     20 C4          1.0426    2.8310   -4.9871 C.3     1  T_I11      -0.0440
     21 H41         1.2761    1.7691   -5.0938 H       1  T_I11       0.0274
     22 H42         1.5507    3.1698   -4.0778 H       1  T_I11       0.0274
     23 H43        -0.0358    2.9398   -4.8318 H       1  T_I11       0.0274
     24 C2          1.5227    3.1870   -7.4412 C.2     1  T_I11      -0.0850
     25 H2          1.8079    3.8823   -8.2296 H       1  T_I11       0.0572
     26 C3          1.2242    1.7891   -7.9154 C.3     1  T_I11      -0.0308
     27 H31         1.2355    1.0716   -7.0894 H       1  T_I11       0.0310
     28 H32         0.2060    1.7816   -8.3235 H       1  T_I11       0.0310
@<TRIPOS>BOND
     1     1     4    1
     2     1     2    1
     3     1     3    1
     4     1    26    1
     5     4     9    2
     6     4     5    1
     7     5     6    1
     8     5     7    1
     9     5     8    1
    10     9    11    1
    11     9    10    1
    12    11    12    1
    13    11    13    1
    14    11    14    1
    15    15    19    1
    16    15    16    1
    17    15    17    1
    18    15    18    1
    19    19    24    2
    20    19    20    1
    21    20    21    1
    22    20    22    1
    23    20    23    1
    24    24    26    1
    25    24    25    1
    26    26    27    1
    27    26    28    1
@<TRIPOS>MOLECULE
/home/jramos/PycharmProjects/GeCos/data/IsoP.pdb
 28 27 0 0 0
SMALL
GASTEIGER

@<TRIPOS>ATOM
      1 C1          2.2328    1.4141   -8.8946 C.3     1  T_I11      -0.0286
      2 HC1         1.9536    0.4166   -9.2610 H       1  T_I11       0.0313
      3 HC3         2.0804    2.1030   -9.7347 H       1  T_I11       0.0313
      4 C1          3.7258    1.3977   -8.5793 C.2     1  T_I11      -0.0765
      5 C4          4.5611    0.7508   -9.6572 C.3     1  T_I11      -0.0438
      6 H41         5.4311    0.2269   -9.2522 H       1  T_I11       0.0274
      7 H42         3.9842    0.0011  -10.2093 H       1  T_I11       0.0274
      8 H43         4.9002    1.5079  -10.3714 H       1  T_I11       0.0274
      9 C2          4.2639    1.8967   -7.4477 C.2     1  T_I11      -0.0881
     10 H2          3.6208    2.3824   -6.7191 H       1  T_I11       0.0569
     11 C3          5.6993    1.8826   -7.0280 C.3     1  T_I11      -0.0466
     12 H31         6.3819    1.5396   -7.8070 H       1  T_I11       0.0272
     13 H32         6.0069    2.8931   -6.7391 H       1  T_I11       0.0272
     14 H33         5.8154    1.2316   -6.1559 H       1  T_I11       0.0272
     15 C           0.6484   -1.0859   -5.1791 C.3     1  T_I11      -0.0440
     16 HC1         1.4467   -0.7086   -4.5294 H       1  T_I11       0.0274
     17 HC2        -0.2745   -1.1124   -4.5930 H       1  T_I11       0.0274
     18 HC3         0.9164   -2.1102   -5.4619 H       1  T_I11       0.0274
     19 C1          0.4671   -0.2395   -6.4089 C.2     1  T_I11      -0.0796
     20 C4         -0.5982   -0.7032   -7.3592 C.3     1  T_I11      -0.0440
     21 H41        -0.4102   -0.3824   -8.3879 H       1  T_I11       0.0274
     22 H42        -0.6476   -1.7983   -7.3772 H       1  T_I11       0.0274
     23 H43        -1.5750   -0.3216   -7.0457 H       1  T_I11       0.0274
     24 C2          1.2515    0.8357   -6.6187 C.2     1  T_I11      -0.0850
     25 H2          1.9982    1.0710   -5.8593 H       1  T_I11       0.0572
     26 C3          1.2262    1.7840   -7.7877 C.3     1  T_I11      -0.0308
     27 H31         0.2217    1.8159   -8.2253 H       1  T_I11       0.0310
     28 H32         1.4156    2.8028   -7.4276 H       1  T_I11       0.0310
@<TRIPOS>BOND
     1     1     4    1
     2     1     2    1
     3     1     3    1
     4     1    26    1
     5     4     9    2
     6     4     5    1
     7     5     6    1
     8     5     7    1
     9     5     8    1
    10     9    11    1
    11     9    10    1
    12    11    12    1
    13    11    13    1
    14    11    14    1
    15    15    19    1
    16    15    16    1
    17    15    17    1
    18    15    18    1
    19    19    24    2
    20    19    20    1
    21    20    21    1
    22    20    22    1
    23    20    23    1
    24    24    26    1
    25    24    25    1
    26    26    27    1
    27    26    28    1
@<TRIPOS>MOLECULE
/home/jramos/PycharmProjects/GeCos/data/IsoP.pdb
 28 27 0 0 0
SMALL
GASTEIGER

@<TRIPOS>ATOM
      1 C1          2.1809    1.1400   -8.8872 C.3     1  T_I11      -0.0286
      2 HC1         1.8749    0.0912   -8.9961 H       1  T_I11       0.0313
      3 HC3         2.0089    1.5819   -9.8747 H       1  T_I11       0.0313
      4 C1          3.6639    1.2043   -8.5585 C.2     1  T_I11      -0.0765
      5 C4          4.3797    2.4743   -8.9406 C.3     1  T_I11      -0.0438
      6 H41         5.4195    2.2922   -9.2261 H       1  T_I11       0.0274
      7 H42         3.9096    2.9459   -9.8090 H       1  T_I11       0.0274
      8 H43         4.3695    3.1879   -8.1110 H       1  T_I11       0.0274
      9 C2          4.2742    0.1520   -7.9795 C.2     1  T_I11      -0.0881
     10 H2          3.6848   -0.7355   -7.7572 H       1  T_I11       0.0569
     11 C3          5.7033    0.0662   -7.5469 C.3     1  T_I11      -0.0466
     12 H31         6.2611    0.9925   -7.6983 H       1  T_I11       0.0272
     13 H32         5.7437   -0.1697   -6.4792 H       1  T_I11       0.0272
     14 H33         6.2098   -0.7340   -8.0949 H       1  T_I11       0.0272
     15 C           1.8785    5.6443   -8.0575 C.3     1  T_I11      -0.0440
     16 HC1         2.2616    5.6968   -7.0336 H       1  T_I11       0.0274
     17 HC2         2.6843    5.9609   -8.7281 H       1  T_I11       0.0274
     18 HC3         1.0521    6.3562   -8.1428 H       1  T_I11       0.0274
     19 C1          1.4219    4.2604   -8.4237 C.2     1  T_I11      -0.0796
     20 C4          0.8939    4.1125   -9.8242 C.3     1  T_I11      -0.0440
     21 H41         0.2196    3.2558   -9.9251 H       1  T_I11       0.0274
     22 H42         0.3226    4.9992  -10.1190 H       1  T_I11       0.0274
     23 H43         1.7225    3.9908  -10.5305 H       1  T_I11       0.0274
     24 C2          1.5391    3.2384   -7.5520 C.2     1  T_I11      -0.0850
     25 H2          1.9378    3.4401   -6.5614 H       1  T_I11       0.0572
     26 C3          1.2688    1.7848   -7.8293 C.3     1  T_I11      -0.0308
     27 H31         1.3826    1.2341   -6.8845 H       1  T_I11       0.0310
     28 H32         0.2168    1.6557   -8.1174 H       1  T_I11       0.0310
@<TRIPOS>BOND
     1     1     4    1
     2     1     2    1
     3     1     3    1
     4     1    26    1
     5     4     9    2
     6     4     5    1
     7     5     6    1
     8     5     7    1
     9     5     8    1
    10     9    11    1
    11     9    10    1
    12    11    12    1
    13    11    13    1
    14    11    14    1
    15    15    19    1
    16    15    16    1
    17    15    17    1
    18    15    18    1
    19    19    24    2
    20    19    20    1
    21    20    21    1
    22    20    22    1
    23    20    23    1
    24    24    26    1
    25    24    25    1
    26    26    27    1
    27    26    28    1
@<TRIPOS>MOLECULE
/home/jramos/PycharmProjects/GeCos/data/IsoP.pdb
 28 27 0 0 0
SMALL
GASTEIGER

@<TRIPOS>ATOM
      1 C1          2.1613    1.1940   -8.9449 C.3     1  T_I11      -0.0286
      2 HC1         1.8755    0.1601   -9.1830 H       1  T_I11       0.0313
      3 HC3         1.9986    1.7760   -9.8595 H       1  T_I11       0.0313
      4 C1          3.6338    1.2171   -8.5564 C.2     1  T_I11      -0.0765
      5 C4          4.0382    0.3468   -7.3937 C.3     1  T_I11      -0.0438
      6 H41         4.8384    0.7995   -6.8046 H       1  T_I11       0.0274
      7 H42         3.2140    0.1857   -6.6951 H       1  T_I11       0.0274
      8 H43         4.3645   -0.6339   -7.7523 H       1  T_I11       0.0274
      9 C2          4.5115    1.9769   -9.2446 C.2     1  T_I11      -0.0881
     10 H2          4.1457    2.5756  -10.0772 H       1  T_I11       0.0569
     11 C3          5.9854    2.0910   -9.0107 C.3     1  T_I11      -0.0466
     12 H31         6.3504    1.4632   -8.1947 H       1  T_I11       0.0272
     13 H32         6.5249    1.7985   -9.9170 H       1  T_I11       0.0272
     14 H33         6.2428    3.1295   -8.7800 H       1  T_I11       0.0272
     15 C          -2.5320    2.6652   -8.0566 C.3     1  T_I11      -0.0440
     16 HC1        -2.7544    1.8581   -8.7630 H       1  T_I11       0.0274
     17 HC2        -3.1374    2.4998   -7.1610 H       1  T_I11       0.0274
     18 HC3        -2.8433    3.6087   -8.5179 H       1  T_I11       0.0274
     19 C1         -1.0721    2.7164   -7.6915 C.2     1  T_I11      -0.0796
     20 C4         -0.7142    3.7732   -6.6805 C.3     1  T_I11      -0.0440
     21 H41         0.2956    4.1655   -6.8184 H       1  T_I11       0.0274
     22 H42        -1.3888    4.6351   -6.7600 H       1  T_I11       0.0274
     23 H43        -0.8018    3.3697   -5.6668 H       1  T_I11       0.0274
     24 C2         -0.1884    1.8442   -8.2106 C.2     1  T_I11      -0.0850
     25 H2         -0.5474    1.0871   -8.9088 H       1  T_I11       0.0572
     26 C3          1.2635    1.7479   -7.8272 C.3     1  T_I11      -0.0308
     27 H31         1.6580    2.7231   -7.5241 H       1  T_I11       0.0310
     28 H32         1.3134    1.0897   -6.9531 H       1  T_I11       0.0310
@<TRIPOS>BOND
     1     1     4    1
     2     1     2    1
     3     1     3    1
     4     1    26    1
     5     4     9    2
     6     4     5    1
     7     5     6    1
     8     5     7    1
     9     5     8    1
    10     9    11    1
    11     9    10    1
    12    11    12    1
    13    11    13    1
    14    11    14    1
    15    15    19    1
    16    15    16    1
    17    15    17    1
    18    15    18    1
    19    19    24    2
    20    19    20    1
    21    20    21    1
    22    20    22    1
    23    20    23    1
    24    24    26    1
    25    24    25    1
    26    26    27    1
    27    26    28    1
@<TRIPOS>MOLECULE
/home/jramos/PycharmProjects/GeCos/data/IsoP.pdb
 28 27 0 0 0
SMALL
GASTEIGER

@<TRIPOS>ATOM
      1 C1          2.1791    1.2101   -8.9550 C.3     1  T_I11      -0.0286
      2 HC1         1.8753    0.1790   -9.1771 H       1  T_I11       0.0313
      3 HC3         2.0322    1.7691   -9.8878 H       1  T_I11       0.0313
      4 C1          3.6462    1.2108   -8.5632 C.2     1  T_I11      -0.0765
      5 C4          4.0254    0.3531   -7.3866 C.3     1  T_I11      -0.0438
      6 H41         4.8196    0.8090   -6.7885 H       1  T_I11       0.0274
      7 H42         3.1860    0.2015   -6.7040 H       1  T_I11       0.0274
      8 H43         4.3551   -0.6335   -7.7313 H       1  T_I11       0.0274
      9 C2          4.5329    1.9540   -9.2569 C.2     1  T_I11      -0.0881
     10 H2          4.1749    2.5466  -10.0979 H       1  T_I11       0.0569
     11 C3          6.0035    2.0685   -9.0139 C.3     1  T_I11      -0.0466
     12 H31         6.3595    1.4437   -8.1914 H       1  T_I11       0.0272
     13 H32         6.5501    1.7743   -9.9147 H       1  T_I11       0.0272
     14 H33         6.2570    3.1077   -8.7841 H       1  T_I11       0.0272
     15 C           1.3884    5.2730   -6.1204 C.3     1  T_I11      -0.0440
     16 HC1         2.1862    5.6427   -6.7732 H       1  T_I11       0.0274
     17 HC2         0.5334    5.9506   -6.2205 H       1  T_I11       0.0274
     18 HC3         1.7558    5.3254   -5.0899 H       1  T_I11       0.0274
     19 C1          0.9803    3.8662   -6.4572 C.2     1  T_I11      -0.0796
     20 C4         -0.1076    3.2847   -5.5980 C.3     1  T_I11      -0.0440
     21 H41        -0.0156    2.2001   -5.4877 H       1  T_I11       0.0274
     22 H42        -0.0740    3.7057   -4.5881 H       1  T_I11       0.0274
     23 H43        -1.0867    3.5094   -6.0323 H       1  T_I11       0.0274
     24 C2          1.5631    3.1982   -7.4710 C.2     1  T_I11      -0.0850
     25 H2          2.3342    3.7037   -8.0505 H       1  T_I11       0.0572
     26 C3          1.2313    1.7888   -7.8888 C.3     1  T_I11      -0.0308
     27 H31         1.2360    1.1316   -7.0128 H       1  T_I11       0.0310
     28 H32         0.2124    1.7736   -8.2954 H       1  T_I11       0.0310
@<TRIPOS>BOND
     1     1     4    1
     2     1     2    1
     3     1     3    1
     4     1    26    1
     5     4     9    2
     6     4     5    1
     7     5     6    1
     8     5     7    1
     9     5     8    1
    10     9    11    1
    11     9    10    1
    12    11    12    1
    13    11    13    1
    14    11    14    1
    15    15    19    1
    16    15    16    1
    17    15    17    1
    18    15    18    1
    19    19    24    2
    20    19    20    1
    21    20    21    1
    22    20    22    1
    23    20    23    1
    24    24    26    1
    25    24    25    1
    26    26    27    1
    27    26    28    1
@<TRIPOS>MOLECULE
/home/jramos/PycharmProjects/GeCos/data/IsoP.pdb
 28 27 0 0 0
SMALL
GASTEIGER

@<TRIPOS>ATOM
      1 C1          2.1403    1.1848   -9.0081 C.3     1  T_I11      -0.0286
      2 HC1         1.8082    0.1710   -9.2668 H       1  T_I11       0.0313
      3 HC3         1.9388    1.7930   -9.9000 H       1  T_I11       0.0313
      4 C1          3.6344    1.1765   -8.7305 C.2     1  T_I11      -0.0765
      5 C4          4.1847   -0.1033   -8.1598 C.3     1  T_I11      -0.0438
      6 H41         4.9348    0.0835   -7.3824 H       1  T_I11       0.0274
      7 H42         3.4044   -0.7087   -7.6921 H       1  T_I11       0.0274
      8 H43         4.6382   -0.7070   -8.9526 H       1  T_I11       0.0274
      9 C2          4.3794    2.2777   -8.9532 C.2     1  T_I11      -0.0881
     10 H2          3.8916    3.1633   -9.3582 H       1  T_I11       0.0569
     11 C3          5.8368    2.4549   -8.6627 C.3     1  T_I11      -0.0466
     12 H31         6.3079    1.5654   -8.2382 H       1  T_I11       0.0272
     13 H32         6.3713    2.7132   -9.5807 H       1  T_I11       0.0272
     14 H33         5.9674    3.2743   -7.9479 H       1  T_I11       0.0272
     15 C           2.5155    0.3344   -4.3946 C.3     1  T_I11      -0.0440
     16 HC1         1.8100   -0.5026   -4.4226 H       1  T_I11       0.0274
     17 HC2         3.5287   -0.0824   -4.4041 H       1  T_I11       0.0274
     18 HC3         2.3661    0.8668   -3.4502 H       1  T_I11       0.0274
     19 C1          2.3391    1.2686   -5.5623 C.2     1  T_I11      -0.0796
     20 C4          3.2611    2.4602   -5.5468 C.3     1  T_I11      -0.0440
     21 H41         2.9290    3.2673   -6.2044 H       1  T_I11       0.0274
     22 H42         3.3258    2.8821   -4.5400 H       1  T_I11       0.0274
     23 H43         4.2677    2.1584   -5.8517 H       1  T_I11       0.0274
     24 C2          1.4739    0.9809   -6.5525 C.2     1  T_I11      -0.0850
     25 H2          0.8741    0.0736   -6.4789 H       1  T_I11       0.0572
     26 C3          1.2936    1.7383   -7.8445 C.3     1  T_I11      -0.0308
     27 H31         0.2337    1.6809   -8.1259 H       1  T_I11       0.0310
     28 H32         1.4958    2.8061   -7.7123 H       1  T_I11       0.0310
@<TRIPOS>BOND
     1     1     4    1
     2     1     2    1
     3     1     3    1
     4     1    26    1
     5     4     9    2
     6     4     5    1
     7     5     6    1
     8     5     7    1
     9     5     8    1
    10     9    11    1
    11     9    10    1
    12    11    12    1
    13    11    13    1
    14    11    14    1
    15    15    19    1
    16    15    16    1
    17    15    17    1
    18    15    18    1
    19    19    24    2
    20    19    20    1
    21    20    21    1
    22    20    22    1
    23    20    23    1
    24    24    26    1
    25    24    25    1
    26    26    27    1
    27    26    28    1
@<TRIPOS>MOLECULE
/home/jramos/PycharmProjects/GeCos/data/IsoP.pdb
 28 27 0 0 0
SMALL
GASTEIGER

@<TRIPOS>ATOM
      1 C1          2.2081    1.2715   -8.9484 C.3     1  T_I11      -0.0286
      2 HC1         1.9726    0.2525   -9.2849 H       1  T_I11       0.0313
      3 HC3         2.0600    1.9259   -9.8175 H       1  T_I11       0.0313
      4 C1          3.6909    1.3124   -8.5896 C.2     1  T_I11      -0.0765
      5 C4          4.5859    0.7584   -9.6713 C.3     1  T_I11      -0.0438
      6 H41         5.4595    0.2415   -9.2639 H       1  T_I11       0.0274
      7 H42         4.0546    0.0216  -10.2835 H       1  T_I11       0.0274
      8 H43         4.9217    1.5651  -10.3309 H       1  T_I11       0.0274
      9 C2          4.1721    1.7796   -7.4186 C.2     1  T_I11      -0.0881
     10 H2          3.4826    2.1819   -6.6797 H       1  T_I11       0.0569
     11 C3          5.5958    1.8277   -6.9646 C.3     1  T_I11      -0.0466
     12 H31         6.3115    1.5164   -7.7267 H       1  T_I11       0.0272
     13 H32         5.8519    2.8517   -6.6698 H       1  T_I11       0.0272
     14 H33         5.7230    1.1827   -6.0913 H       1  T_I11       0.0272
     15 C           0.9139    0.2762   -4.2390 C.3     1  T_I11      -0.0440
     16 HC1         1.6090   -0.5459   -4.4416 H       1  T_I11       0.0274
     17 HC2         1.3511    0.8829   -3.4384 H       1  T_I11       0.0274
     18 HC3        -0.0242   -0.1556   -3.8769 H       1  T_I11       0.0274
     19 C1          0.6678    1.1264   -5.4556 C.2     1  T_I11      -0.0796
     20 C4         -0.1733    2.3489   -5.2259 C.3     1  T_I11      -0.0440
     21 H41        -0.6638    2.6911   -6.1422 H       1  T_I11       0.0274
     22 H42        -0.9719    2.1344   -4.5048 H       1  T_I11       0.0274
     23 H43         0.4380    3.1649   -4.8290 H       1  T_I11       0.0274
     24 C2          1.1917    0.7951   -6.6518 C.2     1  T_I11      -0.0850
     25 H2          1.7637   -0.1288   -6.7339 H       1  T_I11       0.0572
     26 C3          1.1545    1.6554   -7.8895 C.3     1  T_I11      -0.0308
     27 H31         0.1634    1.5570   -8.3499 H       1  T_I11       0.0310
     28 H32         1.2885    2.7123   -7.6244 H       1  T_I11       0.0310
@<TRIPOS>BOND
     1     1     4    1
     2     1     2    1
     3     1     3    1
     4     1    26    1
     5     4     9    2
     6     4     5    1
     7     5     6    1
     8     5     7    1
     9     5     8    1
    10     9    11    1
    11     9    10    1
    12    11    12    1
    13    11    13    1
    14    11    14    1
    15    15    19    1
    16    15    16    1
    17    15    17    1
    18    15    18    1
    19    19    24    2
    20    19    20    1
    21    20    21    1
    22    20    22    1
    23    20    23    1
    24    24    26    1
    25    24    25    1
    26    26    27    1
    27    26    28    1
@<TRIPOS>MOLECULE
/home/jramos/PycharmProjects/GeCos/data/IsoP.pdb
 28 27 0 0 0
SMALL
GASTEIGER

@<TRIPOS>ATOM
      1 C1          2.1994    1.2474   -8.9602 C.3     1  T_I11      -0.0286
      2 HC1         1.8860    0.2390   -9.2596 H       1  T_I11       0.0313
      3 HC3         2.0720    1.8843   -9.8466 H       1  T_I11       0.0313
      4 C1          3.6812    1.1975   -8.6023 C.2     1  T_I11      -0.0765
      5 C4          4.6035    1.4266   -9.7695 C.3     1  T_I11      -0.0438
      6 H41         5.5610    0.9112   -9.6483 H       1  T_I11       0.0274
      7 H42         4.1616    1.0440  -10.6958 H       1  T_I11       0.0274
      8 H43         4.7873    2.4978   -9.8956 H       1  T_I11       0.0274
      9 C2          4.1186    1.0096   -7.3402 C.2     1  T_I11      -0.0881
     10 H2          3.3955    0.8341   -6.5461 H       1  T_I11       0.0569
     11 C3          5.5269    1.0677   -6.8418 C.3     1  T_I11      -0.0466
     12 H31         6.2585    1.2879   -7.6211 H       1  T_I11       0.0272
     13 H32         5.6049    1.8557   -6.0848 H       1  T_I11       0.0272
     14 H33         5.7950    0.1174   -6.3726 H       1  T_I11       0.0272
     15 C           1.0870    5.4832   -6.6316 C.3     1  T_I11      -0.0440
     16 HC1         2.1414    5.6659   -6.8666 H       1  T_I11       0.0274
     17 HC2         0.4901    6.2037   -7.2012 H       1  T_I11       0.0274
     18 HC3         0.9481    5.6790   -5.5633 H       1  T_I11       0.0274
     19 C1          0.6624    4.0773   -6.9655 C.2     1  T_I11      -0.0796
     20 C4         -0.7691    3.7409   -6.6765 C.3     1  T_I11      -0.0440
     21 H41        -0.8920    2.6878   -6.4045 H       1  T_I11       0.0274
     22 H42        -1.1456    4.3281   -5.8311 H       1  T_I11       0.0274
     23 H43        -1.3919    3.9555   -7.5508 H       1  T_I11       0.0274
     24 C2          1.5451    3.1943   -7.4693 C.2     1  T_I11      -0.0850
     25 H2          2.5742    3.5205   -7.6102 H       1  T_I11       0.0572
     26 C3          1.2372    1.7740   -7.8787 C.3     1  T_I11      -0.0308
     27 H31         1.2644    1.1256   -6.9965 H       1  T_I11       0.0310
     28 H32         0.2202    1.7144   -8.2860 H       1  T_I11       0.0310
@<TRIPOS>BOND
     1     1     4    1
     2     1     2    1
     3     1     3    1
     4     1    26    1
     5     4     9    2
     6     4     5    1
     7     5     6    1
     8     5     7    1
     9     5     8    1
    10     9    11    1
    11     9    10    1
    12    11    12    1
    13    11    13    1
    14    11    14    1
    15    15    19    1
    16    15    16    1
    17    15    17    1
    18    15    18    1
    19    19    24    2
    20    19    20    1
    21    20    21    1
    22    20    22    1
    23    20    23    1
    24    24    26    1
    25    24    25    1
    26    26    27    1
    27    26    28    1
@<TRIPOS>MOLECULE
/home/jramos/PycharmProjects/GeCos/data/IsoP.pdb
 28 27 0 0 0
SMALL
GASTEIGER

@<TRIPOS>ATOM
      1 C1          2.2025    1.2726   -8.9543 C.3     1  T_I11      -0.0286
      2 HC1         1.8878    0.2605   -9.2414 H       1  T_I11       0.0313
      3 HC3         2.1238    1.8874   -9.8613 H       1  T_I11       0.0313
      4 C1          3.6790    1.2072   -8.5703 C.2     1  T_I11      -0.0765
      5 C4          4.5714    0.7716   -9.7053 C.3     1  T_I11      -0.0438
      6 H41         5.4726    0.2604   -9.3539 H       1  T_I11       0.0274
      7 H42         4.0515    0.0565  -10.3541 H       1  T_I11       0.0274
      8 H43         4.8633    1.6346  -10.3132 H       1  T_I11       0.0274
      9 C2          4.1573    1.5250   -7.3496 C.2     1  T_I11      -0.0881
     10 H2          3.4657    1.7954   -6.5582 H       1  T_I11       0.0569
     11 C3          5.5829    1.6339   -6.9161 C.3     1  T_I11      -0.0466
     12 H31         6.3020    1.3694   -7.6950 H       1  T_I11       0.0272
     13 H32         5.7902    2.6648   -6.6129 H       1  T_I11       0.0272
     14 H33         5.7592    0.9840   -6.0540 H       1  T_I11       0.0272
     15 C           1.8170    5.0855   -5.8976 C.3     1  T_I11      -0.0440
     16 HC1         2.1613    5.6267   -6.7840 H       1  T_I11       0.0274
     17 HC2         0.9852    5.6454   -5.4599 H       1  T_I11       0.0274
     18 HC3         2.6441    5.0727   -5.1822 H       1  T_I11       0.0274
     19 C1          1.3900    3.6783   -6.2157 C.2     1  T_I11      -0.0796
     20 C4          0.9626    2.8606   -5.0276 C.3     1  T_I11      -0.0440
     21 H41         1.2308    1.8062   -5.1196 H       1  T_I11       0.0274
     22 H42         1.4476    3.2200   -4.1125 H       1  T_I11       0.0274
     23 H43        -0.1198    2.9395   -4.8894 H       1  T_I11       0.0274
     24 C2          1.4390    3.2133   -7.4817 C.2     1  T_I11      -0.0850
     25 H2          1.7486    3.8961   -8.2748 H       1  T_I11       0.0572
     26 C3          1.1666    1.8033   -7.9397 C.3     1  T_I11      -0.0308
     27 H31         1.1065    1.0993   -7.1043 H       1  T_I11       0.0310
     28 H32         0.1822    1.7918   -8.4240 H       1  T_I11       0.0310
@<TRIPOS>BOND
     1     1     4    1
     2     1     2    1
     3     1     3    1
     4     1    26    1
     5     4     9    2
     6     4     5    1
     7     5     6    1
     8     5     7    1
     9     5     8    1
    10     9    11    1
    11     9    10    1
    12    11    12    1
    13    11    13    1
    14    11    14    1
    15    15    19    1
    16    15    16    1
    17    15    17    1
    18    15    18    1
    19    19    24    2
    20    19    20    1
    21    20    21    1
    22    20    22    1
    23    20    23    1
    24    24    26    1
    25    24    25    1
    26    26    27    1
    27    26    28    1
@<TRIPOS>MOLECULE
/home/jramos/PycharmProjects/GeCos/data/IsoP.pdb
 28 27 0 0 0
SMALL
GASTEIGER

@<TRIPOS>ATOM
      1 C1          2.1586    1.2513   -8.9628 C.3     1  T_I11      -0.0286
      2 HC1         1.8655    0.2263   -9.2235 H       1  T_I11       0.0313
      3 HC3         2.0324    1.8601   -9.8676 H       1  T_I11       0.0313
      4 C1          3.6400    1.2521   -8.5862 C.2     1  T_I11      -0.0765
      5 C4          4.5540    0.7604   -9.6767 C.3     1  T_I11      -0.0438
      6 H41         5.4198    0.2236   -9.2777 H       1  T_I11       0.0274
      7 H42         4.0353    0.0566  -10.3376 H       1  T_I11       0.0274
      8 H43         4.9045    1.6018  -10.2828 H       1  T_I11       0.0274
      9 C2          4.1019    1.6612   -7.3855 C.2     1  T_I11      -0.0881
     10 H2          3.4067    2.0043   -6.6235 H       1  T_I11       0.0569
     11 C3          5.5204    1.7469   -6.9206 C.3     1  T_I11      -0.0466
     12 H31         6.2489    1.4529   -7.6786 H       1  T_I11       0.0272
     13 H32         5.7423    2.7775   -6.6263 H       1  T_I11       0.0272
     14 H33         5.6571    1.1066   -6.0434 H       1  T_I11       0.0272
     15 C          -2.6567    2.1502   -7.6941 C.3     1  T_I11      -0.0440
     16 HC1        -2.8324    1.7707   -8.7058 H       1  T_I11       0.0274
     17 HC2        -3.2016    1.5082   -6.9945 H       1  T_I11       0.0274
     18 HC3        -3.0756    3.1602   -7.6385 H       1  T_I11       0.0274
     19 C1         -1.1965    2.1766   -7.3432 C.2     1  T_I11      -0.0796
     20 C4         -0.8775    2.6638   -5.9512 C.3     1  T_I11      -0.0440
     21 H41         0.0948    3.1557   -5.8930 H       1  T_I11       0.0274
     22 H42        -1.6182    3.4001   -5.6168 H       1  T_I11       0.0274
     23 H43        -0.8878    1.8240   -5.2483 H       1  T_I11       0.0274
     24 C2         -0.2463    1.7879   -8.2189 C.2     1  T_I11      -0.0850
     25 H2         -0.5305    1.4461   -9.2106 H       1  T_I11       0.0572
     26 C3          1.2152    1.7787   -7.8733 C.3     1  T_I11      -0.0308
     27 H31         1.5114    2.8086   -7.6359 H       1  T_I11       0.0310
     28 H32         1.3411    1.1593   -6.9745 H       1  T_I11       0.0310
@<TRIPOS>BOND
     1     1     4    1
     2     1     2    1
     3     1     3    1
     4     1    26    1
     5     4     9    2
     6     4     5    1
     7     5     6    1
     8     5     7    1
     9     5     8    1
    10     9    11    1
    11     9    10    1
    12    11    12    1
    13    11    13    1
    14    11    14    1
    15    15    19    1
    16    15    16    1
    17    15    17    1
    18    15    18    1
    19    19    24    2
    20    19    20    1
    21    20    21    1
    22    20    22    1
    23    20    23    1
    24    24    26    1
    25    24    25    1
    26    26    27    1
    27    26    28    1
@<TRIPOS>MOLECULE
/home/jramos/PycharmProjects/GeCos/data/IsoP.pdb
 28 27 0 0 0
SMALL
GASTEIGER

@<TRIPOS>ATOM
      1 C1          2.1972    1.2609   -8.9937 C.3     1  T_I11      -0.0286
      2 HC1         1.8747    0.2611   -9.3112 H       1  T_I11       0.0313
      3 HC3         2.0530    1.9080   -9.8692 H       1  T_I11       0.0313
      4 C1          3.6758    1.2504   -8.6380 C.2     1  T_I11      -0.0765
      5 C4          4.3377   -0.1013   -8.6476 C.3     1  T_I11      -0.0438
      6 H41         5.1105   -0.1871   -7.8789 H       1  T_I11       0.0274
      7 H42         3.6141   -0.8969   -8.4390 H       1  T_I11       0.0274
      8 H43         4.7840   -0.2960   -9.6275 H       1  T_I11       0.0274
      9 C2          4.3086    2.3934   -8.3077 C.2     1  T_I11      -0.0881
     10 H2          3.7446    3.3256   -8.3262 H       1  T_I11       0.0569
     11 C3          5.7367    2.5590   -7.8964 C.3     1  T_I11      -0.0466
     12 H31         6.3118    1.6316   -7.9358 H       1  T_I11       0.0272
     13 H32         6.2277    3.2839   -8.5529 H       1  T_I11       0.0272
     14 H33         5.7788    2.9425   -6.8722 H       1  T_I11       0.0272
     15 C           0.6068   -0.1279   -4.4783 C.3     1  T_I11      -0.0440
     16 HC1         1.6136   -0.5576   -4.4580 H       1  T_I11       0.0274
     17 HC2         0.4815    0.4707   -3.5708 H       1  T_I11       0.0274
     18 HC3        -0.1076   -0.9566   -4.4531 H       1  T_I11       0.0274
     19 C1          0.3710    0.7229   -5.6996 C.2     1  T_I11      -0.0796
     20 C4         -0.9778    1.3763   -5.7745 C.3     1  T_I11      -0.0440
     21 H41        -1.3181    1.5231   -6.8022 H       1  T_I11       0.0274
     22 H42        -1.7365    0.7577   -5.2810 H       1  T_I11       0.0274
     23 H43        -0.9517    2.3478   -5.2715 H       1  T_I11       0.0274
     24 C2          1.3442    0.8902   -6.6166 C.2     1  T_I11      -0.0850
     25 H2          2.3033    0.4061   -6.4342 H       1  T_I11       0.0572
     26 C3          1.2764    1.7461   -7.8574 C.3     1  T_I11      -0.0308
     27 H31         0.2568    1.7739   -8.2527 H       1  T_I11       0.0310
     28 H32         1.5399    2.7744   -7.5821 H       1  T_I11       0.0310
@<TRIPOS>BOND
     1     1     4    1
     2     1     2    1
     3     1     3    1
     4     1    26    1
     5     4     9    2
     6     4     5    1
     7     5     6    1
     8     5     7    1
     9     5     8    1
    10     9    11    1
    11     9    10    1
    12    11    12    1
    13    11    13    1
    14    11    14    1
    15    15    19    1
    16    15    16    1
    17    15    17    1
    18    15    18    1
    19    19    24    2
    20    19    20    1
    21    20    21    1
    22    20    22    1
    23    20    23    1
    24    24    26    1
    25    24    25    1
    26    26    27    1
    27    26    28    1
@<TRIPOS>MOLECULE
/home/jramos/PycharmProjects/GeCos/data/IsoP.pdb
 28 27 0 0 0
SMALL
GASTEIGER

@<TRIPOS>ATOM
      1 C1          2.1588    1.2461   -8.9887 C.3     1  T_I11      -0.0286
      2 HC1         1.8636    0.2143   -9.2243 H       1  T_I11       0.0313
      3 HC3         1.9713    1.8291   -9.8991 H       1  T_I11       0.0313
      4 C1          3.6549    1.2792   -8.6907 C.2     1  T_I11      -0.0765
      5 C4          4.4615    0.1620   -9.2955 C.3     1  T_I11      -0.0438
      6 H41         5.2322   -0.2026   -8.6083 H       1  T_I11       0.0274
      7 H42         3.8392   -0.7019   -9.5426 H       1  T_I11       0.0274
      8 H43         4.9440    0.5066  -10.2172 H       1  T_I11       0.0274
      9 C2          4.2055    2.2271   -7.9095 C.2     1  T_I11      -0.0881
     10 H2          3.5772    3.0368   -7.5496 H       1  T_I11       0.0569
     11 C3          5.6102    2.3098   -7.4044 C.3     1  T_I11      -0.0466
     12 H31         6.2785    1.5651   -7.8423 H       1  T_I11       0.0272
     13 H32         6.0238    3.3000   -7.6133 H       1  T_I11       0.0272
     14 H33         5.6095    2.1676   -6.3208 H       1  T_I11       0.0272
     15 C           2.1052    0.5375   -4.2339 C.3     1  T_I11      -0.0440
     16 HC1         1.8399   -0.5011   -4.4563 H       1  T_I11       0.0274
     17 HC2         3.1692    0.5589   -3.9708 H       1  T_I11       0.0274
     18 HC3         1.5259    0.8508   -3.3597 H       1  T_I11       0.0274
     19 C1          1.8468    1.4589   -5.3956 C.2     1  T_I11      -0.0796
     20 C4          2.1833    2.8999   -5.1238 C.3     1  T_I11      -0.0440
     21 H41         1.6420    3.5901   -5.7764 H       1  T_I11       0.0274
     22 H42         1.9243    3.1726   -4.0970 H       1  T_I11       0.0274
     23 H43         3.2584    3.0673   -5.2482 H       1  T_I11       0.0274
     24 C2          1.4006    0.9767   -6.5748 C.2     1  T_I11      -0.0850
     25 H2          1.1911   -0.0885   -6.6510 H       1  T_I11       0.0572
     26 C3          1.2119    1.7357   -7.8672 C.3     1  T_I11      -0.0308
     27 H31         0.1765    1.5826   -8.1974 H       1  T_I11       0.0310
     28 H32         1.3220    2.8155   -7.7363 H       1  T_I11       0.0310
@<TRIPOS>BOND
     1     1     4    1
     2     1     2    1
     3     1     3    1
     4     1    26    1
     5     4     9    2
     6     4     5    1
     7     5     6    1
     8     5     7    1
     9     5     8    1
    10     9    11    1
    11     9    10    1
    12    11    12    1
    13    11    13    1
    14    11    14    1
    15    15    19    1
    16    15    16    1
    17    15    17    1
    18    15    18    1
    19    19    24    2
    20    19    20    1
    21    20    21    1
    22    20    22    1
    23    20    23    1
    24    24    26    1
    25    24    25    1
    26    26    27    1
    27    26    28    1
@<TRIPOS>MOLECULE
/home/jramos/PycharmProjects/GeCos/data/IsoP.pdb
 28 27 0 0 0
SMALL
GASTEIGER

@<TRIPOS>ATOM
      1 C1          2.2787    1.1967   -8.9235 C.3     1  T_I11      -0.0286
      2 HC1         1.9286    0.1809   -9.1522 H       1  T_I11       0.0313
      3 HC3         2.2027    1.7382   -9.8729 H       1  T_I11       0.0313
      4 C1          3.7442    1.1318   -8.5155 C.2     1  T_I11      -0.0765
      5 C4          4.3287   -0.2533   -8.4407 C.3     1  T_I11      -0.0438
      6 H41         5.1970   -0.3090   -7.7802 H       1  T_I11       0.0274
      7 H42         3.5963   -0.9663   -8.0498 H       1  T_I11       0.0274
      8 H43         4.6284   -0.5816   -9.4415 H       1  T_I11       0.0274
      9 C2          4.4601    2.2526   -8.3048 C.2     1  T_I11      -0.0881
     10 H2          3.9726    3.2165   -8.4188 H       1  T_I11       0.0569
     11 C3          5.9085    2.3769   -7.9462 C.3     1  T_I11      -0.0466
     12 H31         6.4536    1.4321   -7.9938 H       1  T_I11       0.0272
     13 H32         6.3942    3.0729   -8.6384 H       1  T_I11       0.0272
     14 H33         6.0046    2.7841   -6.9346 H       1  T_I11       0.0272
     15 C           1.6799    5.6812   -8.0064 C.3     1  T_I11      -0.0440
     16 HC1         2.0478    5.7270   -6.9762 H       1  T_I11       0.0274
     17 HC2         2.4750    6.0650   -8.6566 H       1  T_I11       0.0274
     18 HC3         0.8143    6.3437   -8.0851 H       1  T_I11       0.0274
     19 C1          1.3148    4.2808   -8.4202 C.2     1  T_I11      -0.0796
     20 C4          0.8279    4.1481   -9.8361 C.3     1  T_I11      -0.0440
     21 H41         0.2814    3.2160  -10.0052 H       1  T_I11       0.0274
     22 H42         0.1436    4.9652  -10.0848 H       1  T_I11       0.0274
     23 H43         1.6747    4.1856  -10.5291 H       1  T_I11       0.0274
     24 C2          1.4746    3.2457   -7.5715 C.2     1  T_I11      -0.0850
     25 H2          1.8392    3.4471   -6.5644 H       1  T_I11       0.0572
     26 C3          1.2994    1.7806   -7.8806 C.3     1  T_I11      -0.0308
     27 H31         1.3998    1.2180   -6.9433 H       1  T_I11       0.0310
     28 H32         0.2686    1.6119   -8.2163 H       1  T_I11       0.0310
@<TRIPOS>BOND
     1     1     4    1
     2     1     2    1
     3     1     3    1
     4     1    26    1
     5     4     9    2
     6     4     5    1
     7     5     6    1
     8     5     7    1
     9     5     8    1
    10     9    11    1
    11     9    10    1
    12    11    12    1
    13    11    13    1
    14    11    14    1
    15    15    19    1
    16    15    16    1
    17    15    17    1
    18    15    18    1
    19    19    24    2
    20    19    20    1
    21    20    21    1
    22    20    22    1
    23    20    23    1
    24    24    26    1
    25    24    25    1
    26    26    27    1
    27    26    28    1
@<TRIPOS>MOLECULE
/home/jramos/PycharmProjects/GeCos/data/IsoP.pdb
 28 27 0 0 0
SMALL
GASTEIGER

@<TRIPOS>ATOM
      1 C1          2.1870    1.3417   -8.8831 C.3     1  T_I11      -0.0286
      2 HC1         1.9282    0.3008   -9.1213 H       1  T_I11       0.0313
      3 HC3         2.0492    1.9212   -9.8061 H       1  T_I11       0.0313
      4 C1          3.6645    1.3790   -8.5005 C.2     1  T_I11      -0.0765
      5 C4          4.0474    1.8488   -7.1230 C.3     1  T_I11      -0.0438
      6 H41         5.0667    2.2399   -7.0825 H       1  T_I11       0.0274
      7 H42         3.4165    2.6738   -6.7828 H       1  T_I11       0.0274
      8 H43         3.9608    1.0240   -6.4096 H       1  T_I11       0.0274
      9 C2          4.5737    0.9529   -9.4046 C.2     1  T_I11      -0.0881
     10 H2          4.2192    0.6236  -10.3796 H       1  T_I11       0.0569
     11 C3          6.0551    0.8282   -9.2209 C.3     1  T_I11      -0.0466
     12 H31         6.4000    1.0837   -8.2183 H       1  T_I11       0.0272
     13 H32         6.3599   -0.2051   -9.4129 H       1  T_I11       0.0272
     14 H33         6.5731    1.4755   -9.9346 H       1  T_I11       0.0272
     15 C          -2.4589    0.5700   -8.3650 C.3     1  T_I11      -0.0440
     16 HC1        -2.7797    1.5021   -8.8409 H       1  T_I11       0.0274
     17 HC2        -2.6451   -0.2497   -9.0691 H       1  T_I11       0.0274
     18 HC3        -3.0869    0.4193   -7.4816 H       1  T_I11       0.0274
     19 C1         -1.0076    0.6007   -7.9699 C.2     1  T_I11      -0.0796
     20 C4         -0.5049   -0.6494   -7.2994 C.3     1  T_I11      -0.0440
     21 H41         0.3015   -0.4537   -6.5880 H       1  T_I11       0.0274
     22 H42        -1.3061   -1.1382   -6.7349 H       1  T_I11       0.0274
     23 H43        -0.1411   -1.3557   -8.0528 H       1  T_I11       0.0274
     24 C2         -0.2410    1.6813   -8.2203 C.2     1  T_I11      -0.0850
     25 H2         -0.6847    2.5334   -8.7342 H       1  T_I11       0.0572
     26 C3          1.1994    1.8638   -7.8292 C.3     1  T_I11      -0.0308
     27 H31         1.3620    2.9383   -7.6736 H       1  T_I11       0.0310
     28 H32         1.3841    1.3890   -6.8604 H       1  T_I11       0.0310
@<TRIPOS>BOND
     1     1     4    1
     2     1     2    1
     3     1     3    1
     4     1    26    1
     5     4     9    2
     6     4     5    1
     7     5     6    1
     8     5     7    1
     9     5     8    1
    10     9    11    1
    11     9    10    1
    12    11    12    1
    13    11    13    1
    14    11    14    1
    15    15    19    1
    16    15    16    1
    17    15    17    1
    18    15    18    1
    19    19    24    2
    20    19    20    1
    21    20    21    1
    22    20    22    1
    23    20    23    1
    24    24    26    1
    25    24    25    1
    26    26    27    1
    27    26    28    1
@<TRIPOS>MOLECULE
/home/jramos/PycharmProjects/GeCos/data/IsoP.pdb
 28 27 0 0 0
SMALL
GASTEIGER

@<TRIPOS>ATOM
      1 C1          2.2641    1.2974   -8.9240 C.3     1  T_I11      -0.0286
      2 HC1         2.0567    0.2931   -9.3194 H       1  T_I11       0.0313
      3 HC3         2.0986    1.9979   -9.7530 H       1  T_I11       0.0313
      4 C1          3.7394    1.3787   -8.5537 C.2     1  T_I11      -0.0765
      5 C4          4.1433    2.0516   -7.2692 C.3     1  T_I11      -0.0438
      6 H41         5.1288    2.5211   -7.3425 H       1  T_I11       0.0274
      7 H42         3.4550    2.8557   -6.9981 H       1  T_I11       0.0274
      8 H43         4.1723    1.3240   -6.4530 H       1  T_I11       0.0274
      9 C2          4.6399    0.8552   -9.4143 C.2     1  T_I11      -0.0881
     10 H2          4.2748    0.4118  -10.3398 H       1  T_I11       0.0569
     11 C3          6.1255    0.7851   -9.2531 C.3     1  T_I11      -0.0466
     12 H31         6.4676    1.0574   -8.2526 H       1  T_I11       0.0272
     13 H32         6.4643   -0.2386   -9.4436 H       1  T_I11       0.0272
     14 H33         6.6110    1.4454   -9.9792 H       1  T_I11       0.0272
     15 C           0.4817   -0.2053   -4.4675 C.3     1  T_I11      -0.0440
     16 HC1         1.4674   -0.6826   -4.4539 H       1  T_I11       0.0274
     17 HC2         0.3999    0.4048   -3.5614 H       1  T_I11       0.0274
     18 HC3        -0.2752   -0.9951   -4.4269 H       1  T_I11       0.0274
     19 C1          0.2801    0.6513   -5.6875 C.2     1  T_I11      -0.0796
     20 C4         -1.0087    1.4249   -5.7138 C.3     1  T_I11      -0.0440
     21 H41        -1.2994    1.7292   -6.7223 H       1  T_I11       0.0274
     22 H42        -1.8285    0.8115   -5.3227 H       1  T_I11       0.0274
     23 H43        -0.9252    2.3220   -5.0916 H       1  T_I11       0.0274
     24 C2          1.2222    0.7106   -6.6502 C.2     1  T_I11      -0.0850
     25 H2          2.1155    0.0998   -6.5318 H       1  T_I11       0.0572
     26 C3          1.1919    1.6074   -7.8588 C.3     1  T_I11      -0.0308
     27 H31         0.2171    1.5168   -8.3528 H       1  T_I11       0.0310
     28 H32         1.2906    2.6507   -7.5379 H       1  T_I11       0.0310
@<TRIPOS>BOND
     1     1     4    1
     2     1     2    1
     3     1     3    1
     4     1    26    1
     5     4     9    2
     6     4     5    1
     7     5     6    1
     8     5     7    1
     9     5     8    1
    10     9    11    1
    11     9    10    1
    12    11    12    1
    13    11    13    1
    14    11    14    1
    15    15    19    1
    16    15    16    1
    17    15    17    1
    18    15    18    1
    19    19    24    2
    20    19    20    1
    21    20    21    1
    22    20    22    1
    23    20    23    1
    24    24    26    1
    25    24    25    1
    26    26    27    1
    27    26    28    1
