@<TRIPOS>MOLECULE
/home/jramos/PycharmProjects/GeCos/examples/07-EVA_trueno_openbabel_mp2/EVA_C5.pdb
 23 22 0 0 0
SMALL
GASTEIGER

@<TRIPOS>ATOM
      1 C          -2.2765    3.1607    1.1238 C.3     1  UNL1       -0.0619
      2 H          -1.8894    3.7771    0.3062 H       1  UNL1        0.0231
      3 H          -2.1902    3.7276    2.0554 H       1  UNL1        0.0231
      4 H          -3.3421    2.9881    0.9417 H       1  UNL1        0.0231
      5 C          -1.5371    1.8344    1.2027 C.3     1  UNL1       -0.0185
      6 H          -1.9596    1.2200    2.0065 H       1  UNL1        0.0298
      7 H          -1.7285    1.2677    0.2821 H       1  UNL1        0.0298
      8 C          -0.0184    1.9828    1.3796 C.3     1  UNL1        0.1026
      9 H           0.3688    2.5259    0.5071 H       1  UNL1        0.0733
     10 C           0.3996    2.7212    2.6640 C.3     1  UNL1       -0.0185
     11 H           0.0380    3.7545    2.6446 H       1  UNL1        0.0298
     12 H           1.4942    2.7767    2.7034 H       1  UNL1        0.0298
     13 C          -0.0660    2.0443    3.9478 C.3     1  UNL1       -0.0619
     14 H           0.2717    1.0049    3.9985 H       1  UNL1        0.0231
     15 H           0.3415    2.5712    4.8165 H       1  UNL1        0.0231
     16 H          -1.1564    2.0591    4.0341 H       1  UNL1        0.0231
     17 O           0.5346    0.6473    1.4002 O.3     1  UNL1       -0.4616
     18 C           1.8403    0.5333    1.0314 C.2     1  UNL1        0.3042
     19 O           2.5502    1.4418    0.6256 O.2     1  UNL1       -0.2512
     20 C           2.3156   -0.8705    1.2511 C.3     1  UNL1        0.0332
     21 H           2.3965   -1.0630    2.3234 H       1  UNL1        0.0342
     22 H           1.6274   -1.5785    0.7833 H       1  UNL1        0.0342
     23 H           3.2997   -0.9940    0.7912 H       1  UNL1        0.0342
@<TRIPOS>BOND
     1     3     1    1
     2     1     4    1
     3     1     2    1
     4     1     5    1
     5     9     8    1
     6    19    18    2
     7     6     5    1
     8     8     5    1
     9     8    17    1
    10     8    10    1
    11     5     7    1
    12    18    17    1
    13    18    20    1
    14    23    20    1
    15    20    22    1
    16    20    21    1
    17    12    10    1
    18    10    11    1
    19    10    13    1
    20    14    13    1
    21    13    16    1
    22    13    15    1
@<TRIPOS>MOLECULE
/home/jramos/PycharmProjects/GeCos/examples/07-EVA_trueno_openbabel_mp2/EVA_C5.pdb
 23 22 0 0 0
SMALL
GASTEIGER

@<TRIPOS>ATOM
      1 C          -2.3039    1.0972    2.5973 C.3     1  UNL1       -0.0619
      2 H          -1.9877    1.5221    3.5546 H       1  UNL1        0.0231
      3 H          -1.9596    0.0605    2.5454 H       1  UNL1        0.0231
      4 H          -3.3993    1.0877    2.5897 H       1  UNL1        0.0231
      5 C          -1.7837    1.9192    1.4245 C.3     1  UNL1       -0.0185
      6 H          -2.2516    1.5251    0.5148 H       1  UNL1        0.0298
      7 H          -2.1271    2.9552    1.5316 H       1  UNL1        0.0298
      8 C          -0.2551    1.8997    1.2591 C.3     1  UNL1        0.1026
      9 H           0.0124    2.4849    0.3675 H       1  UNL1        0.0733
     10 C           0.4633    2.5254    2.4643 C.3     1  UNL1       -0.0185
     11 H           0.2595    1.9472    3.3734 H       1  UNL1        0.0298
     12 H           0.0919    3.5438    2.6274 H       1  UNL1        0.0298
     13 C           1.9758    2.5697    2.2840 C.3     1  UNL1       -0.0619
     14 H           2.2490    3.1049    1.3696 H       1  UNL1        0.0231
     15 H           2.4400    3.0841    3.1314 H       1  UNL1        0.0231
     16 H           2.3988    1.5612    2.2342 H       1  UNL1        0.0231
     17 O           0.2299    0.5504    1.1044 O.3     1  UNL1       -0.4616
     18 C           0.1050    0.0031   -0.1342 C.2     1  UNL1        0.3042
     19 O          -0.4433    0.5266   -1.0938 O.2     1  UNL1       -0.2512
     20 C           0.7813   -1.3337   -0.1913 C.3     1  UNL1        0.0332
     21 H           1.6606   -1.2610   -0.8351 H       1  UNL1        0.0342
     22 H           1.1015   -1.6530    0.8048 H       1  UNL1        0.0342
     23 H           0.0821   -2.0780   -0.5805 H       1  UNL1        0.0342
@<TRIPOS>BOND
     1     3     1    1
     2     1     4    1
     3     1     2    1
     4     1     5    1
     5     9     8    1
     6    19    18    2
     7     6     5    1
     8     8     5    1
     9     8    17    1
    10     8    10    1
    11     5     7    1
    12    18    17    1
    13    18    20    1
    14    23    20    1
    15    20    22    1
    16    20    21    1
    17    12    10    1
    18    10    11    1
    19    10    13    1
    20    14    13    1
    21    13    16    1
    22    13    15    1
@<TRIPOS>MOLECULE
/home/jramos/PycharmProjects/GeCos/examples/07-EVA_trueno_openbabel_mp2/EVA_C5.pdb
 23 22 0 0 0
SMALL
GASTEIGER

@<TRIPOS>ATOM
      1 C          -2.2042    1.0847    2.5089 C.3     1  UNL1       -0.0619
      2 H          -2.0591    1.6911    3.4068 H       1  UNL1        0.0231
      3 H          -1.7974    0.0861    2.6930 H       1  UNL1        0.0231
      4 H          -3.2829    0.9833    2.3535 H       1  UNL1        0.0231
      5 C          -1.5632    1.7253    1.2847 C.3     1  UNL1       -0.0185
      6 H          -1.7733    1.0773    0.4245 H       1  UNL1        0.0298
      7 H          -2.0543    2.6842    1.0827 H       1  UNL1        0.0298
      8 C          -0.0406    1.9260    1.3828 C.3     1  UNL1        0.1026
      9 H           0.2822    2.3913    0.4425 H       1  UNL1        0.0733
     10 C           0.4091    2.7945    2.5697 C.3     1  UNL1       -0.0185
     11 H           1.5056    2.8426    2.5904 H       1  UNL1        0.0298
     12 H           0.1331    2.3205    3.5176 H       1  UNL1        0.0298
     13 C          -0.1273    4.2153    2.5210 C.3     1  UNL1       -0.0619
     14 H          -1.2166    4.2390    2.6165 H       1  UNL1        0.0231
     15 H           0.2900    4.8013    3.3465 H       1  UNL1        0.0231
     16 H           0.1507    4.7069    1.5835 H       1  UNL1        0.0231
     17 O           0.5710    0.6231    1.5030 O.3     1  UNL1       -0.4616
     18 C           1.8614    0.5293    1.0790 C.2     1  UNL1        0.3042
     19 O           2.5245    1.4383    0.5958 O.2     1  UNL1       -0.2512
     20 C           2.3851   -0.8538    1.3162 C.3     1  UNL1        0.0332
     21 H           2.4744   -1.0349    2.3897 H       1  UNL1        0.0342
     22 H           1.7216   -1.5890    0.8536 H       1  UNL1        0.0342
     23 H           3.3744   -0.9481    0.8578 H       1  UNL1        0.0342
@<TRIPOS>BOND
     1     3     1    1
     2     1     4    1
     3     1     2    1
     4     1     5    1
     5     9     8    1
     6    19    18    2
     7     6     5    1
     8     8     5    1
     9     8    17    1
    10     8    10    1
    11     5     7    1
    12    18    17    1
    13    18    20    1
    14    23    20    1
    15    20    22    1
    16    20    21    1
    17    12    10    1
    18    10    11    1
    19    10    13    1
    20    14    13    1
    21    13    16    1
    22    13    15    1
@<TRIPOS>MOLECULE
/home/jramos/PycharmProjects/GeCos/examples/07-EVA_trueno_openbabel_mp2/EVA_C5.pdb
 23 22 0 0 0
SMALL
GASTEIGER

@<TRIPOS>ATOM
      1 C          -2.0269    1.0007   -0.0171 C.3     1  UNL1       -0.0619
      2 H          -1.6271   -0.0172   -0.0441 H       1  UNL1        0.0231
      3 H          -1.6678    1.5385   -0.9002 H       1  UNL1        0.0231
      4 H          -3.1183    0.9363   -0.0828 H       1  UNL1        0.0231
      5 C          -1.6248    1.7212    1.2633 C.3     1  UNL1       -0.0185
      6 H          -2.1147    2.7009    1.2825 H       1  UNL1        0.0298
      7 H          -2.0094    1.1376    2.1080 H       1  UNL1        0.0298
      8 C          -0.1038    1.8987    1.3838 C.3     1  UNL1        0.1026
      9 H           0.2635    2.3659    0.4600 H       1  UNL1        0.0733
     10 C           0.2695    2.7877    2.5858 C.3     1  UNL1       -0.0185
     11 H          -0.2080    3.7682    2.4865 H       1  UNL1        0.0298
     12 H           1.3521    2.9602    2.5794 H       1  UNL1        0.0298
     13 C          -0.0876    2.1820    3.9393 C.3     1  UNL1       -0.0619
     14 H           0.3419    1.1828    4.0611 H       1  UNL1        0.0231
     15 H           0.3028    2.8112    4.7453 H       1  UNL1        0.0231
     16 H          -1.1712    2.1100    4.0700 H       1  UNL1        0.0231
     17 O           0.5001    0.6005    1.5564 O.3     1  UNL1       -0.4616
     18 C           1.8271    0.5208    1.2571 C.2     1  UNL1        0.3042
     19 O           2.4916    1.3930    0.7160 O.2     1  UNL1       -0.2512
     20 C           2.3952   -0.7585    1.7947 C.3     1  UNL1        0.0332
     21 H           2.5658   -0.6516    2.8676 H       1  UNL1        0.0342
     22 H           1.7131   -1.5915    1.6012 H       1  UNL1        0.0342
     23 H           3.3436   -0.9725    1.2947 H       1  UNL1        0.0342
@<TRIPOS>BOND
     1     3     1    1
     2     1     4    1
     3     1     2    1
     4     1     5    1
     5     9     8    1
     6    19    18    2
     7     6     5    1
     8     8     5    1
     9     8    17    1
    10     8    10    1
    11     5     7    1
    12    18    17    1
    13    18    20    1
    14    23    20    1
    15    20    22    1
    16    20    21    1
    17    12    10    1
    18    10    11    1
    19    10    13    1
    20    14    13    1
    21    13    16    1
    22    13    15    1
@<TRIPOS>MOLECULE
/home/jramos/PycharmProjects/GeCos/examples/07-EVA_trueno_openbabel_mp2/EVA_C5.pdb
 23 22 0 0 0
SMALL
GASTEIGER

@<TRIPOS>ATOM
      1 C          -2.2057    3.6992    1.2272 C.3     1  UNL1       -0.0619
      2 H          -1.6946    4.1648    0.3788 H       1  UNL1        0.0231
      3 H          -1.8749    4.1898    2.1470 H       1  UNL1        0.0231
      4 H          -3.2790    3.8878    1.1202 H       1  UNL1        0.0231
      5 C          -1.9445    2.2036    1.2684 C.3     1  UNL1       -0.0185
      6 H          -2.4427    1.7614    2.1389 H       1  UNL1        0.0298
      7 H          -2.4351    1.7448    0.4007 H       1  UNL1        0.0298
      8 C          -0.4542    1.8256    1.2557 C.3     1  UNL1        0.1026
      9 H           0.0109    2.1921    0.3311 H       1  UNL1        0.0733
     10 C           0.3597    2.3959    2.4287 C.3     1  UNL1       -0.0185
     11 H           0.3534    3.4912    2.3964 H       1  UNL1        0.0298
     12 H           1.4051    2.0847    2.3078 H       1  UNL1        0.0298
     13 C          -0.0983    1.9286    3.8045 C.3     1  UNL1       -0.0619
     14 H          -0.0340    0.8400    3.8965 H       1  UNL1        0.0231
     15 H           0.5408    2.3664    4.5784 H       1  UNL1        0.0231
     16 H          -1.1270    2.2349    4.0129 H       1  UNL1        0.0231
     17 O          -0.3595    0.3847    1.3115 O.3     1  UNL1       -0.4616
     18 C          -0.5154   -0.2747    0.1305 C.2     1  UNL1        0.3042
     19 O          -0.6095    0.2446   -0.9710 O.2     1  UNL1       -0.2512
     20 C          -0.5528   -1.7534    0.3702 C.3     1  UNL1        0.0332
     21 H           0.4622   -2.1386    0.4825 H       1  UNL1        0.0342
     22 H          -1.1451   -1.9740    1.2630 H       1  UNL1        0.0342
     23 H          -1.0409   -2.2409   -0.4788 H       1  UNL1        0.0342
@<TRIPOS>BOND
     1     3     1    1
     2     1     4    1
     3     1     2    1
     4     1     5    1
     5     9     8    1
     6    19    18    2
     7     6     5    1
     8     8     5    1
     9     8    17    1
    10     8    10    1
    11     5     7    1
    12    18    17    1
    13    18    20    1
    14    23    20    1
    15    20    22    1
    16    20    21    1
    17    12    10    1
    18    10    11    1
    19    10    13    1
    20    14    13    1
    21    13    16    1
    22    13    15    1
@<TRIPOS>MOLECULE
/home/jramos/PycharmProjects/GeCos/examples/07-EVA_trueno_openbabel_mp2/EVA_C5.pdb
 23 22 0 0 0
SMALL
GASTEIGER

@<TRIPOS>ATOM
      1 C          -2.0455    0.9821    0.0029 C.3     1  UNL1       -0.0619
      2 H          -1.6600   -0.0417    0.0043 H       1  UNL1        0.0231
      3 H          -1.7143    1.4800   -0.9135 H       1  UNL1        0.0231
      4 H          -3.1393    0.9270   -0.0191 H       1  UNL1        0.0231
      5 C          -1.5939    1.7502    1.2374 C.3     1  UNL1       -0.0185
      6 H          -2.1103    2.7152    1.2427 H       1  UNL1        0.0298
      7 H          -1.9269    1.1946    2.1227 H       1  UNL1        0.0298
      8 C          -0.0690    1.9654    1.3049 C.3     1  UNL1        0.1026
      9 H           0.2429    2.5323    0.4156 H       1  UNL1        0.0733
     10 C           0.3140    2.7282    2.5857 C.3     1  UNL1       -0.0185
     11 H           1.4000    2.7175    2.7266 H       1  UNL1        0.0298
     12 H          -0.0952    2.2143    3.4640 H       1  UNL1        0.0298
     13 C          -0.1499    4.1778    2.5707 C.3     1  UNL1       -0.0619
     14 H          -1.2397    4.2541    2.6195 H       1  UNL1        0.0231
     15 H           0.2566    4.7132    3.4348 H       1  UNL1        0.0231
     16 H           0.1924    4.6892    1.6652 H       1  UNL1        0.0231
     17 O           0.5664    0.6692    1.2668 O.3     1  UNL1       -0.4616
     18 C           1.8926    0.6631    0.9540 C.2     1  UNL1        0.3042
     19 O           2.6153    1.6426    0.8599 O.2     1  UNL1       -0.2512
     20 C           2.3566   -0.7428    0.6849 C.3     1  UNL1        0.0332
     21 H           2.3679   -1.3239    1.6077 H       1  UNL1        0.0342
     22 H           1.7051   -1.2080   -0.0582 H       1  UNL1        0.0342
     23 H           3.3681   -0.7099    0.2705 H       1  UNL1        0.0342
@<TRIPOS>BOND
     1     3     1    1
     2     1     4    1
     3     1     2    1
     4     1     5    1
     5     9     8    1
     6    19    18    2
     7     6     5    1
     8     8     5    1
     9     8    17    1
    10     8    10    1
    11     5     7    1
    12    18    17    1
    13    18    20    1
    14    23    20    1
    15    20    22    1
    16    20    21    1
    17    12    10    1
    18    10    11    1
    19    10    13    1
    20    14    13    1
    21    13    16    1
    22    13    15    1
@<TRIPOS>MOLECULE
/home/jramos/PycharmProjects/GeCos/examples/07-EVA_trueno_openbabel_mp2/EVA_C5.pdb
 23 22 0 0 0
SMALL
GASTEIGER

@<TRIPOS>ATOM
      1 C          -2.2397    3.7049    1.1655 C.3     1  UNL1       -0.0619
      2 H          -1.7423    4.0873    0.2689 H       1  UNL1        0.0231
      3 H          -1.9323    4.3086    2.0237 H       1  UNL1        0.0231
      4 H          -3.3188    3.8411    1.0398 H       1  UNL1        0.0231
      5 C          -1.9285    2.2349    1.3800 C.3     1  UNL1       -0.0185
      6 H          -2.3707    1.8975    2.3265 H       1  UNL1        0.0298
      7 H          -2.4440    1.6589    0.6014 H       1  UNL1        0.0298
      8 C          -0.4303    1.8849    1.3542 C.3     1  UNL1        0.1026
      9 H           0.0070    2.1421    0.3813 H       1  UNL1        0.0733
     10 C           0.3566    2.6010    2.4625 C.3     1  UNL1       -0.0185
     11 H           0.0158    2.2531    3.4451 H       1  UNL1        0.0298
     12 H           0.1933    3.6824    2.4166 H       1  UNL1        0.0298
     13 C           1.8567    2.3541    2.3625 C.3     1  UNL1       -0.0619
     14 H           2.2518    2.7324    1.4137 H       1  UNL1        0.0231
     15 H           2.3784    2.8735    3.1736 H       1  UNL1        0.0231
     16 H           2.0946    1.2886    2.4367 H       1  UNL1        0.0231
     17 O          -0.3246    0.4612    1.5891 O.3     1  UNL1       -0.4616
     18 C          -0.5828   -0.3434    0.5201 C.2     1  UNL1        0.3042
     19 O          -0.6937    0.0265   -0.6384 O.2     1  UNL1       -0.2512
     20 C          -0.7451   -1.7645    0.9665 C.3     1  UNL1        0.0332
     21 H           0.1827   -2.3156    0.8083 H       1  UNL1        0.0342
     22 H          -1.0253   -1.8050    2.0239 H       1  UNL1        0.0342
     23 H          -1.5612   -2.2199    0.3972 H       1  UNL1        0.0342
@<TRIPOS>BOND
     1     3     1    1
     2     1     4    1
     3     1     2    1
     4     1     5    1
     5     9     8    1
     6    19    18    2
     7     6     5    1
     8     8     5    1
     9     8    17    1
    10     8    10    1
    11     5     7    1
    12    18    17    1
    13    18    20    1
    14    23    20    1
    15    20    22    1
    16    20    21    1
    17    12    10    1
    18    10    11    1
    19    10    13    1
    20    14    13    1
    21    13    16    1
    22    13    15    1
@<TRIPOS>MOLECULE
/home/jramos/PycharmProjects/GeCos/examples/07-EVA_trueno_openbabel_mp2/EVA_C5.pdb
 23 22 0 0 0
SMALL
GASTEIGER

@<TRIPOS>ATOM
      1 C          -2.3440    1.1608    2.5740 C.3     1  UNL1       -0.0619
      2 H          -2.0531    1.7004    3.4794 H       1  UNL1        0.0231
      3 H          -1.9750    0.1331    2.6498 H       1  UNL1        0.0231
      4 H          -3.4372    1.1243    2.5489 H       1  UNL1        0.0231
      5 C          -1.8206    1.8502    1.3189 C.3     1  UNL1       -0.0185
      6 H          -2.2463    1.3250    0.4570 H       1  UNL1        0.0298
      7 H          -2.2089    2.8721    1.2734 H       1  UNL1        0.0298
      8 C          -0.2831    1.8555    1.2077 C.3     1  UNL1        0.1026
      9 H           0.0152    2.3641    0.2816 H       1  UNL1        0.0733
     10 C           0.4109    2.5764    2.3761 C.3     1  UNL1       -0.0185
     11 H           1.4980    2.5063    2.2445 H       1  UNL1        0.0298
     12 H           0.2063    2.0641    3.3236 H       1  UNL1        0.0298
     13 C           0.0221    4.0459    2.4906 C.3     1  UNL1       -0.0619
     14 H          -1.0493    4.1713    2.6718 H       1  UNL1        0.0231
     15 H           0.5497    4.5173    3.3258 H       1  UNL1        0.0231
     16 H           0.2813    4.5887    1.5760 H       1  UNL1        0.0231
     17 O           0.1944    0.4922    1.1719 O.3     1  UNL1       -0.4616
     18 C           0.0145   -0.1602   -0.0104 C.2     1  UNL1        0.3042
     19 O          -0.3903    0.3440   -1.0496 O.2     1  UNL1       -0.2512
     20 C           0.3773   -1.6094    0.0998 C.3     1  UNL1        0.0332
     21 H           1.3333   -1.7854   -0.3968 H       1  UNL1        0.0342
     22 H           0.4433   -1.9159    1.1473 H       1  UNL1        0.0342
     23 H          -0.4103   -2.2065   -0.3717 H       1  UNL1        0.0342
@<TRIPOS>BOND
     1     3     1    1
     2     1     4    1
     3     1     2    1
     4     1     5    1
     5     9     8    1
     6    19    18    2
     7     6     5    1
     8     8     5    1
     9     8    17    1
    10     8    10    1
    11     5     7    1
    12    18    17    1
    13    18    20    1
    14    23    20    1
    15    20    22    1
    16    20    21    1
    17    12    10    1
    18    10    11    1
    19    10    13    1
    20    14    13    1
    21    13    16    1
    22    13    15    1
@<TRIPOS>MOLECULE
/home/jramos/PycharmProjects/GeCos/examples/07-EVA_trueno_openbabel_mp2/EVA_C5.pdb
 23 22 0 0 0
SMALL
GASTEIGER

@<TRIPOS>ATOM
      1 C          -1.8980    0.8800    0.1547 C.3     1  UNL1       -0.0619
      2 H          -1.3524   -0.0663    0.0992 H       1  UNL1        0.0231
      3 H          -1.6887    1.4562   -0.7528 H       1  UNL1        0.0231
      4 H          -2.9695    0.6524    0.1662 H       1  UNL1        0.0231
      5 C          -1.5187    1.6682    1.4020 C.3     1  UNL1       -0.0185
      6 H          -2.1816    2.5377    1.4693 H       1  UNL1        0.0298
      7 H          -1.7236    1.0448    2.2780 H       1  UNL1        0.0298
      8 C          -0.0545    2.1334    1.3832 C.3     1  UNL1        0.1026
      9 H           0.1008    2.6982    0.4559 H       1  UNL1        0.0733
     10 C           0.3231    3.0596    2.5532 C.3     1  UNL1       -0.0185
     11 H           1.4160    3.1304    2.6169 H       1  UNL1        0.0298
     12 H          -0.0099    2.6305    3.5046 H       1  UNL1        0.0298
     13 C          -0.2484    4.4614    2.4208 C.3     1  UNL1       -0.0619
     14 H          -1.3394    4.4568    2.4573 H       1  UNL1        0.0231
     15 H           0.1136    5.0883    3.2435 H       1  UNL1        0.0231
     16 H           0.0682    4.9249    1.4811 H       1  UNL1        0.0231
     17 O           0.8971    1.0442    1.2942 O.3     1  UNL1       -0.4616
     18 C           1.0745    0.2219    2.3624 C.2     1  UNL1        0.3042
     19 O           0.3445    0.1398    3.3373 O.2     1  UNL1       -0.2512
     20 C           2.3655   -0.5311    2.2288 C.3     1  UNL1        0.0332
     21 H           2.1712   -1.6046    2.2454 H       1  UNL1        0.0342
     22 H           2.8717   -0.2784    1.2928 H       1  UNL1        0.0342
     23 H           3.0237   -0.2466    3.0555 H       1  UNL1        0.0342
@<TRIPOS>BOND
     1     3     1    1
     2     1     4    1
     3     1     2    1
     4     1     5    1
     5     9     8    1
     6    19    18    2
     7     6     5    1
     8     8     5    1
     9     8    17    1
    10     8    10    1
    11     5     7    1
    12    18    17    1
    13    18    20    1
    14    23    20    1
    15    20    22    1
    16    20    21    1
    17    12    10    1
    18    10    11    1
    19    10    13    1
    20    14    13    1
    21    13    16    1
    22    13    15    1
@<TRIPOS>MOLECULE
/home/jramos/PycharmProjects/GeCos/examples/07-EVA_trueno_openbabel_mp2/EVA_C5.pdb
 23 22 0 0 0
SMALL
GASTEIGER

@<TRIPOS>ATOM
      1 C          -2.0578    0.9950    0.0507 C.3     1  UNL1       -0.0619
      2 H          -1.6801   -0.0288    0.1225 H       1  UNL1        0.0231
      3 H          -1.6873    1.4388   -0.8784 H       1  UNL1        0.0231
      4 H          -3.1497    0.9482   -0.0142 H       1  UNL1        0.0231
      5 C          -1.6459    1.8338    1.2544 C.3     1  UNL1       -0.0185
      6 H          -2.0830    2.8287    1.1257 H       1  UNL1        0.0298
      7 H          -2.0909    1.3863    2.1516 H       1  UNL1        0.0298
      8 C          -0.1214    1.9293    1.4258 C.3     1  UNL1        0.1026
      9 H           0.3354    2.2402    0.4765 H       1  UNL1        0.0733
     10 C           0.2752    2.8856    2.5687 C.3     1  UNL1       -0.0185
     11 H           1.3686    2.9006    2.6588 H       1  UNL1        0.0298
     12 H          -0.0826    2.4782    3.5233 H       1  UNL1        0.0298
     13 C          -0.1962    4.3168    2.4165 C.3     1  UNL1       -0.0619
     14 H          -1.2828    4.3930    2.5060 H       1  UNL1        0.0231
     15 H           0.2406    4.9305    3.2110 H       1  UNL1        0.0231
     16 H           0.1134    4.7340    1.4544 H       1  UNL1        0.0231
     17 O           0.3618    0.6244    1.8144 O.3     1  UNL1       -0.4616
     18 C           1.7126    0.4570    1.7501 C.2     1  UNL1        0.3042
     19 O           2.4793    1.0990    1.0418 O.2     1  UNL1       -0.2512
     20 C           2.1443   -0.4842    2.8310 C.3     1  UNL1        0.0332
     21 H           2.1156    0.0498    3.7858 H       1  UNL1        0.0342
     22 H           1.4826   -1.3554    2.8724 H       1  UNL1        0.0342
     23 H           3.1638   -0.8280    2.6414 H       1  UNL1        0.0342
@<TRIPOS>BOND
     1     3     1    1
     2     1     4    1
     3     1     2    1
     4     1     5    1
     5     9     8    1
     6    19    18    2
     7     6     5    1
     8     8     5    1
     9     8    17    1
    10     8    10    1
    11     5     7    1
    12    18    17    1
    13    18    20    1
    14    23    20    1
    15    20    22    1
    16    20    21    1
    17    12    10    1
    18    10    11    1
    19    10    13    1
    20    14    13    1
    21    13    16    1
    22    13    15    1
@<TRIPOS>MOLECULE
/home/jramos/PycharmProjects/GeCos/examples/07-EVA_trueno_openbabel_mp2/EVA_C5.pdb
 23 22 0 0 0
SMALL
GASTEIGER

@<TRIPOS>ATOM
      1 C          -2.4604    1.3342    2.4424 C.3     1  UNL1       -0.0619
      2 H          -2.2408    1.8872    3.3602 H       1  UNL1        0.0231
      3 H          -2.2481    0.2753    2.6252 H       1  UNL1        0.0231
      4 H          -3.5323    1.4182    2.2425 H       1  UNL1        0.0231
      5 C          -1.6556    1.8674    1.2569 C.3     1  UNL1       -0.0185
      6 H          -1.8778    1.2208    0.3980 H       1  UNL1        0.0298
      7 H          -1.9995    2.8722    0.9848 H       1  UNL1        0.0298
      8 C          -0.1364    1.8404    1.5063 C.3     1  UNL1        0.1026
      9 H           0.3872    2.0126    0.5554 H       1  UNL1        0.0733
     10 C           0.3343    2.8568    2.5679 C.3     1  UNL1       -0.0185
     11 H           1.4293    2.9105    2.5436 H       1  UNL1        0.0298
     12 H           0.0829    2.4944    3.5716 H       1  UNL1        0.0298
     13 C          -0.1842    4.2737    2.3960 C.3     1  UNL1       -0.0619
     14 H          -1.2635    4.3290    2.5617 H       1  UNL1        0.0231
     15 H           0.2904    4.9318    3.1321 H       1  UNL1        0.0231
     16 H           0.0428    4.6611    1.3984 H       1  UNL1        0.0231
     17 O           0.1060    0.4829    1.9427 O.3     1  UNL1       -0.4616
     18 C           1.2918    0.1234    2.4821 C.2     1  UNL1        0.3042
     19 O           2.3625    0.6939    2.3292 O.2     1  UNL1       -0.2512
     20 C           1.0410   -1.0102    3.4252 C.3     1  UNL1        0.0332
     21 H           0.4220   -0.6480    4.2515 H       1  UNL1        0.0342
     22 H           0.5326   -1.8281    2.9063 H       1  UNL1        0.0342
     23 H           1.9884   -1.3781    3.8268 H       1  UNL1        0.0342
@<TRIPOS>BOND
     1     3     1    1
     2     1     4    1
     3     1     2    1
     4     1     5    1
     5     9     8    1
     6    19    18    2
     7     6     5    1
     8     8     5    1
     9     8    17    1
    10     8    10    1
    11     5     7    1
    12    18    17    1
    13    18    20    1
    14    23    20    1
    15    20    22    1
    16    20    21    1
    17    12    10    1
    18    10    11    1
    19    10    13    1
    20    14    13    1
    21    13    16    1
    22    13    15    1
@<TRIPOS>MOLECULE
/home/jramos/PycharmProjects/GeCos/examples/07-EVA_trueno_openbabel_mp2/EVA_C5.pdb
 23 22 0 0 0
SMALL
GASTEIGER

@<TRIPOS>ATOM
      1 C          -2.2775    3.3690    1.2482 C.3     1  UNL1       -0.0619
      2 H          -1.9149    3.9023    0.3647 H       1  UNL1        0.0231
      3 H          -1.9955    3.9380    2.1396 H       1  UNL1        0.0231
      4 H          -3.3714    3.3487    1.2046 H       1  UNL1        0.0231
      5 C          -1.7298    1.9501    1.2763 C.3     1  UNL1       -0.0185
      6 H          -2.0800    1.4174    2.1681 H       1  UNL1        0.0298
      7 H          -2.1809    1.4444    0.4194 H       1  UNL1        0.0298
      8 C          -0.1930    1.8934    1.1922 C.3     1  UNL1        0.1026
      9 H           0.1391    2.4459    0.3058 H       1  UNL1        0.0733
     10 C           0.4385    2.5541    2.4376 C.3     1  UNL1       -0.0185
     11 H           0.1012    2.0343    3.3420 H       1  UNL1        0.0298
     12 H           0.1054    3.5957    2.5176 H       1  UNL1        0.0298
     13 C           1.9612    2.5671    2.4370 C.3     1  UNL1       -0.0619
     14 H           2.3482    3.0692    1.5462 H       1  UNL1        0.0231
     15 H           2.3242    3.1127    3.3149 H       1  UNL1        0.0231
     16 H           2.3720    1.5552    2.4802 H       1  UNL1        0.0231
     17 O           0.3739    0.5641    1.0620 O.3     1  UNL1       -0.4616
     18 C          -0.1487   -0.3000    0.1538 C.2     1  UNL1        0.3042
     19 O          -1.3341   -0.5658    0.0040 O.2     1  UNL1       -0.2512
     20 C           0.9255   -0.8380   -0.7388 C.3     1  UNL1        0.0332
     21 H           1.1627   -0.0914   -1.4988 H       1  UNL1        0.0342
     22 H           1.8180   -1.0936   -0.1604 H       1  UNL1        0.0342
     23 H           0.5645   -1.7483   -1.2297 H       1  UNL1        0.0342
@<TRIPOS>BOND
     1     3     1    1
     2     1     4    1
     3     1     2    1
     4     1     5    1
     5     9     8    1
     6    19    18    2
     7     6     5    1
     8     8     5    1
     9     8    17    1
    10     8    10    1
    11     5     7    1
    12    18    17    1
    13    18    20    1
    14    23    20    1
    15    20    22    1
    16    20    21    1
    17    12    10    1
    18    10    11    1
    19    10    13    1
    20    14    13    1
    21    13    16    1
    22    13    15    1
