# Molecule Name
# Created by GaussView 6.0.16
#

#
#

@<TRIPOS>MOLECULE
Molecule Name
23 22
SMALL
NO_CHARGES


@<TRIPOS>ATOM
1 C1    -2.1918     1.0869     0.0462 C
2 H2    -1.8327     0.0796     0.0811 H
3 H3    -1.8419     1.5594    -0.8478 H
4 H4    -3.2617     1.0846     0.0531 H
5 C5    -1.6721     1.8599     1.2725 C
6 H6    -2.0311     2.8673     1.2376 H
7 H7    -2.0220     1.3874     2.1665 H
8 C8    -0.1321     1.8632     1.2625 C
9 H9     0.2177     2.3357     0.3686 H
10 C10     0.3875     2.6362     2.4889 C
11 H11    -0.3291     3.3784     2.7726 H
12 H12     1.3149     3.1108     2.2447 H
13 C13     0.6039     1.6579     3.6585 C
14 H14     1.3205     0.9158     3.3747 H
15 H15     0.9650     2.1950     4.5106 H
16 H16    -0.3235     1.1834     3.9027 H
17 O17     0.3477     0.5169     1.3092 O
18 C18     1.7777     0.5199     1.3000 C
19 O19     2.4004     1.3296     0.5650 O
20 C20     2.5556    -0.4677     2.1894 C
21 H21     2.7391    -0.0199     3.1436 H
22 H22     1.9800    -1.3604     2.3191 H
23 H23     3.4880    -0.7091     1.7233 H
@<TRIPOS>BOND
1 1 2 1
2 1 3 1
3 1 4 1
4 1 5 1
5 5 6 1
6 5 7 1
7 5 8 1
8 8 9 1
9 8 10 1
10 8 17 1
11 10 11 1
12 10 12 1
13 10 13 1
14 13 14 1
15 13 15 1
16 13 16 1
17 17 18 1
18 18 19 2
19 18 20 1
20 20 21 1
21 20 22 1
22 20 23 1
