@<TRIPOS>MOLECULE
/home/jramos/PycharmProjects/GeCos/examples/05-PET_trueno_rdkit_mp2/05-PET_g16_conformers/05-PET_1983_gaussian.xyz
 46 47 0 0 0
SMALL
GASTEIGER

@<TRIPOS>ATOM
      1 C           0.9829   -2.5483   -0.4435 C.2     1  UNL1        0.3393
      2 C           2.5722    0.8770   -0.7535 C.ar    1  UNL1       -0.0470
      3 H           2.4060    1.8484   -1.2061 H       1  UNL1        0.0626
      4 C           1.6644   -0.1613   -0.9116 C.ar    1  UNL1       -0.0470
      5 H           0.7612   -0.0258   -1.4946 H       1  UNL1        0.0626
      6 C           1.9200   -1.3954   -0.3095 C.ar    1  UNL1        0.0590
      7 C           3.0764   -1.5905    0.4475 C.ar    1  UNL1       -0.0470
      8 H           3.2429   -2.5613    0.9015 H       1  UNL1        0.0626
      9 C           3.9843   -0.5523    0.6041 C.ar    1  UNL1       -0.0470
     10 H           4.8876   -0.6869    1.1872 H       1  UNL1        0.0626
     11 C           3.7293    0.6816    0.0018 C.ar    1  UNL1        0.0590
     12 O           4.4859    2.9186   -0.3688 O.2     1  UNL1       -0.2450
     13 C           4.6696    1.8358    0.1345 C.2     1  UNL1        0.3392
     14 O           5.7456    1.5385    0.8767 O.3     1  UNL1       -0.4614
     15 O          -0.0818   -2.2591   -1.2110 O.3     1  UNL1       -0.4577
     16 O           1.1559   -3.6275    0.0741 O.2     1  UNL1       -0.2450
     17 C           6.6893    2.6079    1.0425 C.3     1  UNL1        0.0900
     18 H           7.0306    2.9306    0.0546 H       1  UNL1        0.0695
     19 H           6.1794    3.4561    1.5084 H       1  UNL1        0.0695
     20 C           7.8203    2.0790    1.8958 C.3     1  UNL1       -0.0306
     21 H           7.4483    1.7563    2.8706 H       1  UNL1        0.0262
     22 H           8.5669    2.8612    2.0507 H       1  UNL1        0.0262
     23 H           8.3038    1.2290    1.4096 H       1  UNL1        0.0262
     24 C          -6.3786    2.8764    0.7164 C.2     1  UNL1        0.3368
     25 C          -5.4899   -0.3771   -1.0039 C.ar    1  UNL1       -0.0470
     26 H          -5.8237   -1.0280   -1.8046 H       1  UNL1        0.0626
     27 C          -6.1627    0.7976   -0.6969 C.ar    1  UNL1       -0.0470
     28 H          -7.0436    1.0949   -1.2537 H       1  UNL1        0.0626
     29 C          -5.6960    1.6047    0.3427 C.ar    1  UNL1        0.0589
     30 C          -4.5632    1.2413    1.0724 C.ar    1  UNL1       -0.0470
     31 H          -4.2293    1.8930    1.8725 H       1  UNL1        0.0626
     32 C          -3.8906    0.0665    0.7658 C.ar    1  UNL1       -0.0470
     33 H          -3.0090   -0.2306    1.3213 H       1  UNL1        0.0626
     34 C          -4.3577   -0.7412   -0.2736 C.ar    1  UNL1        0.0590
     35 O          -4.0408   -2.7374   -1.5489 O.2     1  UNL1       -0.2450
     36 C          -3.6771   -2.0150   -0.6500 C.2     1  UNL1        0.3393
     37 O          -2.6119   -2.2768    0.1252 O.3     1  UNL1       -0.4577
     38 O          -7.4559    3.1367   -0.0470 O.3     1  UNL1       -0.4771
     39 O          -6.0199    3.6089    1.6058 O.2     1  UNL1       -0.2451
     40 C          -1.9079   -3.4867   -0.1731 C.3     1  UNL1        0.1268
     41 H          -1.3070   -3.7000    0.7105 H       1  UNL1        0.0732
     42 H          -2.6219   -4.2951   -0.3503 H       1  UNL1        0.0732
     43 C          -1.0230   -3.3211   -1.3932 C.3     1  UNL1        0.1268
     44 H          -0.4919   -4.2571   -1.5842 H       1  UNL1        0.0732
     45 H          -1.6166   -3.0395   -2.2625 H       1  UNL1        0.0732
     46 H          -7.8228    3.9742    0.2734 H       1  UNL1        0.2954
@<TRIPOS>BOND
     1    45    43    1
     2    26    25    1
     3    44    43    1
     4    35    36    2
     5     5     4    1
     6    43    15    1
     7    43    40    1
     8    28    27    1
     9    15     1    1
    10     3     2    1
    11    25    27   ar
    12    25    34   ar
    13     4     2   ar
    14     4     6   ar
    15     2    11   ar
    16    27    29   ar
    17    36    34    1
    18    36    37    1
    19     1     6    1
    20     1    16    2
    21    12    13    2
    22    42    40    1
    23     6     7   ar
    24    34    32   ar
    25    40    37    1
    26    40    41    1
    27    38    46    1
    28    38    24    1
    29    11    13    1
    30    11     9   ar
    31    18    17    1
    32    13    14    1
    33    29    24    1
    34    29    30   ar
    35     7     9   ar
    36     7     8    1
    37     9    10    1
    38    24    39    2
    39    32    30   ar
    40    32    33    1
    41    14    17    1
    42    17    19    1
    43    17    20    1
    44    30    31    1
    45    23    20    1
    46    20    22    1
    47    20    21    1
