@<TRIPOS>MOLECULE
/home/jramos/PycharmProjects/GeCos/examples/05-PET_trueno_rdkit_mp2/05-PET_g16_conformers/05-PET_214_gaussian.xyz
 46 47 0 0 0
SMALL
GASTEIGER

@<TRIPOS>ATOM
      1 C           1.2148   -0.6013    0.9520 C.2     1  UNL1        0.3393
      2 C           4.2060    1.0174   -0.7182 C.ar    1  UNL1       -0.0470
      3 H           4.4614    1.6981   -1.5230 H       1  UNL1        0.0626
      4 C           2.8882    0.6807   -0.4419 C.ar    1  UNL1       -0.0470
      5 H           2.0749    1.0925   -1.0278 H       1  UNL1        0.0626
      6 C           2.6093   -0.2005    0.6054 C.ar    1  UNL1        0.0590
      7 C           3.6418   -0.7426    1.3727 C.ar    1  UNL1       -0.0470
      8 H           3.3873   -1.4234    2.1777 H       1  UNL1        0.0626
      9 C           4.9593   -0.4055    1.0958 C.ar    1  UNL1       -0.0470
     10 H           5.7741   -0.8161    1.6805 H       1  UNL1        0.0626
     11 C           5.2384    0.4756    0.0488 C.ar    1  UNL1        0.0590
     12 O           6.9188    1.6342   -1.1950 O.2     1  UNL1       -0.2450
     13 C           6.6367    0.8762   -0.2971 C.2     1  UNL1        0.3392
     14 O           7.5485    0.2998    0.4980 O.3     1  UNL1       -0.4614
     15 O           0.2974   -0.0248    0.1527 O.3     1  UNL1       -0.4577
     16 O           0.9230   -1.3587    1.8454 O.2     1  UNL1       -0.2450
     17 C           8.9134    0.6452    0.2139 C.3     1  UNL1        0.0900
     18 H           9.0241    1.7304    0.2959 H       1  UNL1        0.0695
     19 H           9.1365    0.3683   -0.8206 H       1  UNL1        0.0695
     20 C           9.7791   -0.0973    1.2069 C.3     1  UNL1       -0.0306
     21 H           9.6403   -1.1760    1.1075 H       1  UNL1        0.0262
     22 H          10.8317    0.1346    1.0300 H       1  UNL1        0.0262
     23 H           9.5273    0.1927    2.2294 H       1  UNL1        0.0262
     24 C          -9.6226   -0.8027    0.0838 C.2     1  UNL1        0.3368
     25 C          -6.5954    0.7466   -1.4993 C.ar    1  UNL1       -0.0470
     26 H          -6.3404    1.4273   -2.3041 H       1  UNL1        0.0626
     27 C          -7.9109    0.4087   -1.2207 C.ar    1  UNL1       -0.0470
     28 H          -8.7371    0.8116   -1.7964 H       1  UNL1        0.0626
     29 C          -8.1914   -0.4721   -0.1742 C.ar    1  UNL1        0.0589
     30 C          -7.1618   -1.0165    0.5950 C.ar    1  UNL1       -0.0470
     31 H          -7.3999   -1.6984    1.4030 H       1  UNL1        0.0626
     32 C          -5.8436   -0.6780    0.3159 C.ar    1  UNL1       -0.0470
     33 H          -5.0304   -1.0901    0.9016 H       1  UNL1        0.0626
     34 C          -5.5639    0.2028   -0.7306 C.ar    1  UNL1        0.0590
     35 O          -3.8766    1.3597   -1.9692 O.2     1  UNL1       -0.2450
     36 C          -4.1680    0.6021   -1.0762 C.2     1  UNL1        0.3393
     37 O          -3.2519    0.0252   -0.2765 O.3     1  UNL1       -0.4577
     38 O          -9.7861   -1.6579    1.1099 O.3     1  UNL1       -0.4771
     39 O         -10.5503   -0.3618   -0.5495 O.2     1  UNL1       -0.2451
     40 C          -1.8985    0.3761   -0.5647 C.3     1  UNL1        0.1268
     41 H          -1.6477    0.0900   -1.5900 H       1  UNL1        0.0732
     42 H          -1.7639    1.4573   -0.4705 H       1  UNL1        0.0732
     43 C          -1.0553   -0.3761    0.4415 C.3     1  UNL1        0.1268
     44 H          -1.1901   -1.4573    0.3474 H       1  UNL1        0.0732
     45 H          -1.3062   -0.0900    1.4668 H       1  UNL1        0.0732
     46 H         -10.7403   -1.8062    1.1932 H       1  UNL1        0.2954
@<TRIPOS>BOND
     1    26    25    1
     2    35    36    2
     3    28    27    1
     4    41    40    1
     5     3     2    1
     6    25    27   ar
     7    25    34   ar
     8    27    29   ar
     9    12    13    2
    10    36    34    1
    11    36    37    1
    12     5     4    1
    13    19    17    1
    14    34    32   ar
    15     2     4   ar
    16     2    11   ar
    17    40    42    1
    18    40    37    1
    19    40    43    1
    20    39    24    2
    21     4     6   ar
    22    13    11    1
    23    13    14    1
    24    29    24    1
    25    29    30   ar
    26    11     9   ar
    27    24    38    1
    28    15    43    1
    29    15     1    1
    30    17    18    1
    31    17    14    1
    32    17    20    1
    33    32    30   ar
    34    32    33    1
    35    44    43    1
    36    43    45    1
    37    30    31    1
    38     6     1    1
    39     6     7   ar
    40     1    16    2
    41    22    20    1
    42     9     7   ar
    43     9    10    1
    44    21    20    1
    45    38    46    1
    46    20    23    1
    47     7     8    1
