@<TRIPOS>MOLECULE
/home/jramos/PycharmProjects/GeCos/examples/05-PET_trueno_rdkit_mp2/05-PET_g16_conformers/05-PET_1390_gaussian.xyz
 46 47 0 0 0
SMALL
GASTEIGER

@<TRIPOS>ATOM
      1 C           0.9216   -2.6169   -0.1254 C.2     1  UNL1        0.3393
      2 C           3.9881   -0.5636    0.5601 C.ar    1  UNL1       -0.0470
      3 H           4.9066   -0.6386    1.1302 H       1  UNL1        0.0626
      4 C           3.0580   -1.5939    0.5697 C.ar    1  UNL1       -0.0470
      5 H           3.2217   -2.4988    1.1446 H       1  UNL1        0.0626
      6 C           1.8823   -1.4767   -0.1735 C.ar    1  UNL1        0.0590
      7 C           1.6296   -0.3286   -0.9278 C.ar    1  UNL1       -0.0470
      8 H           0.7112   -0.2528   -1.4978 H       1  UNL1        0.0626
      9 C           2.5596    0.7019   -0.9358 C.ar    1  UNL1       -0.0470
     10 H           2.3964    1.6077   -1.5095 H       1  UNL1        0.0626
     11 C           3.7361    0.5842   -0.1944 C.ar    1  UNL1        0.0590
     12 O           4.5195    2.7352   -0.8823 O.2     1  UNL1       -0.2450
     13 C           4.6998    1.7255   -0.2439 C.2     1  UNL1        0.3392
     14 O           5.7931    1.5068    0.5004 O.3     1  UNL1       -0.4614
     15 O          -0.1612   -2.4099   -0.8941 O.3     1  UNL1       -0.4577
     16 O           1.0918   -3.6210    0.5268 O.2     1  UNL1       -0.2450
     17 C           6.7599    2.5684    0.4948 C.3     1  UNL1        0.0900
     18 H           7.0759    2.7493   -0.5367 H       1  UNL1        0.0695
     19 H           6.2795    3.4818    0.8573 H       1  UNL1        0.0695
     20 C           7.9074    2.1339    1.3787 C.3     1  UNL1       -0.0306
     21 H           7.5603    1.9519    2.3981 H       1  UNL1        0.0262
     22 H           8.3608    1.2166    0.9971 H       1  UNL1        0.0262
     23 H           8.6719    2.9136    1.4063 H       1  UNL1        0.0262
     24 C          -6.3054    3.0695    0.5066 C.2     1  UNL1        0.3368
     25 C          -5.5269   -0.4024   -0.7874 C.ar    1  UNL1       -0.0470
     26 H          -5.8965   -1.1469   -1.4840 H       1  UNL1        0.0626
     27 C          -6.1694    0.8168   -0.6214 C.ar    1  UNL1       -0.0470
     28 H          -7.0619    1.0560   -1.1877 H       1  UNL1        0.0626
     29 C          -5.6568    1.7451    0.2873 C.ar    1  UNL1        0.0589
     30 C          -4.5084    1.4582    1.0266 C.ar    1  UNL1       -0.0470
     31 H          -4.1388    2.2033    1.7225 H       1  UNL1        0.0626
     32 C          -3.8661    0.2389    0.8610 C.ar    1  UNL1       -0.0470
     33 H          -2.9730   -0.0003    1.4259 H       1  UNL1        0.0626
     34 C          -4.3791   -0.6900   -0.0473 C.ar    1  UNL1        0.0590
     35 O          -4.1364   -2.8446   -1.0526 O.2     1  UNL1       -0.2450
     36 C          -3.7327   -2.0168   -0.2691 C.2     1  UNL1        0.3393
     37 O          -2.6486   -2.1955    0.5036 O.3     1  UNL1       -0.4577
     38 O          -7.4011    3.2486   -0.2539 O.3     1  UNL1       -0.4771
     39 O          -5.9067    3.9061    1.2795 O.2     1  UNL1       -0.2451
     40 C          -1.9753   -3.4491    0.3500 C.3     1  UNL1        0.1268
     41 H          -1.3511   -3.5556    1.2368 H       1  UNL1        0.0732
     42 H          -2.7083   -4.2586    0.3029 H       1  UNL1        0.0732
     43 C          -1.1259   -3.4664   -0.9059 C.3     1  UNL1        0.1268
     44 H          -1.7410   -3.2906   -1.7878 H       1  UNL1        0.0732
     45 H          -0.6172   -4.4307   -0.9849 H       1  UNL1        0.0732
     46 H          -7.7434    4.1290   -0.0381 H       1  UNL1        0.2954
@<TRIPOS>BOND
     1    44    43    1
     2    10     9    1
     3     8     7    1
     4    26    25    1
     5    28    27    1
     6    35    36    2
     7    45    43    1
     8     9     7   ar
     9     9    11   ar
    10     7     6   ar
    11    43    15    1
    12    43    40    1
    13    15     1    1
    14    12    13    2
    15    25    27   ar
    16    25    34   ar
    17    27    29   ar
    18    18    17    1
    19    36    34    1
    20    36    37    1
    21    38    46    1
    22    38    24    1
    23    13    11    1
    24    13    14    1
    25    11     2   ar
    26     6     1    1
    27     6     4   ar
    28     1    16    2
    29    34    32   ar
    30    29    24    1
    31    29    30   ar
    32    42    40    1
    33    40    37    1
    34    40    41    1
    35    17    14    1
    36    17    19    1
    37    17    20    1
    38    24    39    2
    39     2     4   ar
    40     2     3    1
    41     4     5    1
    42    32    30   ar
    43    32    33    1
    44    22    20    1
    45    30    31    1
    46    20    23    1
    47    20    21    1
