@<TRIPOS>MOLECULE
/home/jramos/PycharmProjects/GeCos/examples/05-PET_trueno_rdkit_mp2/05-PET_g16_conformers/05-PET_1387_gaussian.xyz
 46 47 0 0 0
SMALL
GASTEIGER

@<TRIPOS>ATOM
      1 C           1.0879   -0.5808    0.0447 C.2     1  UNL1        0.3393
      2 C           4.1911    1.0148    1.5205 C.ar    1  UNL1       -0.0470
      3 H           4.5026    1.6763    2.3214 H       1  UNL1        0.0626
      4 C           2.8575    0.6757    1.3378 C.ar    1  UNL1       -0.0470
      5 H           2.0901    1.0663    1.9956 H       1  UNL1        0.0626
      6 C           2.5031   -0.1800    0.2923 C.ar    1  UNL1        0.0590
      7 C           3.4764   -0.6938   -0.5662 C.ar    1  UNL1       -0.0470
      8 H           3.1661   -1.3556   -1.3675 H       1  UNL1        0.0626
      9 C           4.8098   -0.3551   -0.3821 C.ar    1  UNL1       -0.0470
     10 H           5.5783   -0.7458   -1.0387 H       1  UNL1        0.0626
     11 C           5.1646    0.5004    0.6629 C.ar    1  UNL1        0.0590
     12 O           6.9315    1.6373    1.8024 O.2     1  UNL1       -0.2450
     13 C           6.5832    0.9002    0.9109 C.2     1  UNL1        0.3392
     14 O           7.4327    0.3488    0.0326 O.3     1  UNL1       -0.4614
     15 O           0.2370   -0.0322    0.9324 O.3     1  UNL1       -0.4577
     16 O           0.7352   -1.3151   -0.8477 O.2     1  UNL1       -0.2450
     17 C           8.8142    0.6928    0.2182 C.3     1  UNL1        0.0900
     18 H           9.1187    0.3902    1.2243 H       1  UNL1        0.0695
     19 H           8.9162    1.7802    0.1560 H       1  UNL1        0.0695
     20 C           9.6019   -0.0199   -0.8583 C.3     1  UNL1       -0.0306
     21 H          10.6645    0.2121   -0.7572 H       1  UNL1        0.0262
     22 H           9.4735   -1.1014   -0.7767 H       1  UNL1        0.0262
     23 H           9.2707    0.2955   -1.8501 H       1  UNL1        0.0262
     24 C          -9.5016   -0.8936   -0.4051 C.2     1  UNL1        0.3368
     25 C          -6.3966    0.6694    1.0051 C.ar    1  UNL1       -0.0470
     26 H          -6.0984    1.3304    1.8115 H       1  UNL1        0.0626
     27 C          -7.7226    0.3135    0.8107 C.ar    1  UNL1       -0.0470
     28 H          -8.5111    0.6825    1.4576 H       1  UNL1        0.0626
     29 C          -8.0624   -0.5406   -0.2401 C.ar    1  UNL1        0.0589
     30 C          -7.0808   -1.0395   -1.0980 C.ar    1  UNL1       -0.0470
     31 H          -7.3630   -1.7013   -1.9085 H       1  UNL1        0.0626
     32 C          -5.7521   -0.6825   -0.9039 C.ar    1  UNL1       -0.0470
     33 H          -4.9762   -1.0596   -1.5595 H       1  UNL1        0.0626
     34 C          -5.4135    0.1712    0.1475 C.ar    1  UNL1        0.0590
     35 O          -3.6629    1.3193    1.3007 O.2     1  UNL1       -0.2450
     36 C          -4.0028    0.5855    0.4033 C.2     1  UNL1        0.3393
     37 O          -3.1433    0.0490   -0.4827 O.3     1  UNL1       -0.4577
     38 O          -9.7231   -1.7190   -1.4448 O.3     1  UNL1       -0.4771
     39 O         -10.3890   -0.4933    0.3079 O.2     1  UNL1       -0.2451
     40 C          -1.7719    0.4232   -0.3284 C.3     1  UNL1        0.1268
     41 H          -1.6993    1.4889   -0.0998 H       1  UNL1        0.0732
     42 H          -1.2951    0.1989   -1.2824 H       1  UNL1        0.0732
     43 C          -1.1373   -0.3973    0.7868 C.3     1  UNL1        0.1268
     44 H          -1.2185   -1.4630    0.5611 H       1  UNL1        0.0732
     45 H          -1.6080   -0.1675    1.7425 H       1  UNL1        0.0732
     46 H         -10.6774   -1.8857   -1.4636 H       1  UNL1        0.2954
@<TRIPOS>BOND
     1    31    30    1
     2    23    20    1
     3    33    32    1
     4    46    38    1
     5    38    24    1
     6     8     7    1
     7    42    40    1
     8    30    32   ar
     9    30    29   ar
    10    10     9    1
    11    32    34   ar
    12    20    22    1
    13    20    21    1
    14    20    17    1
    15    16     1    2
    16     7     9   ar
    17     7     6   ar
    18    37    40    1
    19    37    36    1
    20    24    29    1
    21    24    39    2
    22     9    11   ar
    23    40    41    1
    24    40    43    1
    25    29    27   ar
    26    14    17    1
    27    14    13    1
    28     1     6    1
    29     1    15    1
    30    34    36    1
    31    34    25   ar
    32    19    17    1
    33    17    18    1
    34     6     4   ar
    35    36    35    2
    36    44    43    1
    37    11    13    1
    38    11     2   ar
    39    43    15    1
    40    43    45    1
    41    27    25   ar
    42    27    28    1
    43    13    12    2
    44    25    26    1
    45     4     2   ar
    46     4     5    1
    47     2     3    1
