@<TRIPOS>MOLECULE
/home/jramos/PycharmProjects/GeCos/examples/05-PET_trueno_rdkit_mp2/05-PET_g16_conformers/05-PET_361_gaussian.xyz
 46 47 0 0 0
SMALL
GASTEIGER

@<TRIPOS>ATOM
      1 C           1.0141    0.2525    0.7458 C.2     1  UNL1        0.3393
      2 C           4.3710   -1.1908   -0.2552 C.ar    1  UNL1       -0.0470
      3 H           4.8102   -2.0661   -0.7212 H       1  UNL1        0.0626
      4 C           2.9991   -1.0757   -0.0777 C.ar    1  UNL1       -0.0470
      5 H           2.3292   -1.8630   -0.4024 H       1  UNL1        0.0626
      6 C           2.4783    0.0703    0.5275 C.ar    1  UNL1        0.0590
      7 C           3.3243    1.0960    0.9528 C.ar    1  UNL1       -0.0470
      8 H           2.8861    1.9718    1.4190 H       1  UNL1        0.0626
      9 C           4.6960    0.9796    0.7759 C.ar    1  UNL1       -0.0470
     10 H           5.3671    1.7658    1.1010 H       1  UNL1        0.0626
     11 C           5.2170   -0.1659    0.1708 C.ar    1  UNL1        0.0590
     12 O           7.1752   -1.3223   -0.5651 O.2     1  UNL1       -0.2450
     13 C           6.6846   -0.3479   -0.0461 C.2     1  UNL1        0.3392
     14 O           7.4023    0.6922    0.4012 O.3     1  UNL1       -0.4614
     15 O           0.2955   -0.7965    0.3030 O.3     1  UNL1       -0.4577
     16 O           0.5195    1.2267    1.2618 O.2     1  UNL1       -0.2450
     17 C           8.8225    0.5778    0.2238 C.3     1  UNL1        0.0900
     18 H           9.1686   -0.3230    0.7389 H       1  UNL1        0.0695
     19 H           9.0335    0.4498   -0.8418 H       1  UNL1        0.0695
     20 C           9.4468    1.8356    0.7855 C.3     1  UNL1       -0.0306
     21 H           9.0766    2.7175    0.2582 H       1  UNL1        0.0262
     22 H           9.2116    1.9410    1.8467 H       1  UNL1        0.0262
     23 H          10.5325    1.7943    0.6730 H       1  UNL1        0.0262
     24 C          -9.5529   -0.2474    0.0209 C.2     1  UNL1        0.3368
     25 C          -6.2027   -1.6205   -0.9607 C.ar    1  UNL1       -0.0470
     26 H          -5.7763   -2.5023   -1.4263 H       1  UNL1        0.0626
     27 C          -7.5697   -1.4902   -0.7683 C.ar    1  UNL1       -0.0470
     28 H          -8.2636   -2.2649   -1.0757 H       1  UNL1        0.0626
     29 C          -8.0762   -0.3378   -0.1643 C.ar    1  UNL1        0.0589
     30 C          -7.2204    0.6853    0.2471 C.ar    1  UNL1       -0.0470
     31 H          -7.6313    1.5728    0.7141 H       1  UNL1        0.0626
     32 C          -5.8507    0.5553    0.0537 C.ar    1  UNL1       -0.0470
     33 H          -5.1707    1.3388    0.3664 H       1  UNL1        0.0626
     34 C          -5.3453   -0.5977   -0.5498 C.ar    1  UNL1        0.0590
     35 O          -3.4013   -1.7710   -1.2957 O.2     1  UNL1       -0.2450
     36 C          -3.8835   -0.7909   -0.7801 C.2     1  UNL1        0.3393
     37 O          -3.1549    0.2552   -0.3482 O.3     1  UNL1       -0.4577
     38 O          -9.9382    0.9000    0.6093 O.3     1  UNL1       -0.4771
     39 O         -10.3366   -1.1018   -0.3135 O.2     1  UNL1       -0.2451
     40 C          -1.7440    0.1650   -0.5622 C.3     1  UNL1        0.1268
     41 H          -1.3672    1.1845   -0.4825 H       1  UNL1        0.0732
     42 H          -1.5426   -0.2464   -1.5538 H       1  UNL1        0.0732
     43 C          -1.1167   -0.7169    0.5095 C.3     1  UNL1        0.1268
     44 H          -1.4868   -1.7385    0.4253 H       1  UNL1        0.0732
     45 H          -1.3265   -0.3090    1.5009 H       1  UNL1        0.0732
     46 H         -10.9035    0.8590    0.6834 H       1  UNL1        0.2954
@<TRIPOS>BOND
     1    42    40    1
     2    26    25    1
     3    35    36    2
     4    28    27    1
     5    25    27   ar
     6    25    34   ar
     7    19    17    1
     8    36    34    1
     9    36    37    1
    10    27    29   ar
    11     3     2    1
    12    12    13    2
    13    40    41    1
    14    40    37    1
    15    40    43    1
    16    34    32   ar
    17     5     4    1
    18    39    24    2
    19     2     4   ar
    20     2    11   ar
    21    29    24    1
    22    29    30   ar
    23     4     6   ar
    24    13    11    1
    25    13    14    1
    26    24    38    1
    27    32    30   ar
    28    32    33    1
    29    11     9   ar
    30    17    14    1
    31    17    18    1
    32    17    20    1
    33    30    31    1
    34    21    20    1
    35    15    43    1
    36    15     1    1
    37    44    43    1
    38    43    45    1
    39     6     1    1
    40     6     7   ar
    41    38    46    1
    42    23    20    1
    43     1    16    2
    44     9     7   ar
    45     9    10    1
    46    20    22    1
    47     7     8    1
