@<TRIPOS>MOLECULE
/home/jramos/PycharmProjects/GeCos/examples/05-PET_trueno_rdkit_mp2/05-PET_g16_conformers/05-PET_1088_gaussian.xyz
 46 47 0 0 0
SMALL
GASTEIGER

@<TRIPOS>ATOM
      1 C           1.0371    0.1598    0.7958 C.2     1  UNL1        0.3393
      2 C           4.3543   -1.1113   -0.5213 C.ar    1  UNL1       -0.0470
      3 H           4.7725   -1.8919   -1.1475 H       1  UNL1        0.0626
      4 C           2.9878   -1.0168   -0.2965 C.ar    1  UNL1       -0.0470
      5 H           2.3010   -1.7255   -0.7441 H       1  UNL1        0.0626
      6 C           2.4943    0.0056    0.5172 C.ar    1  UNL1        0.0590
      7 C           3.3622    0.9287    1.1031 C.ar    1  UNL1       -0.0470
      8 H           2.9451    1.7097    1.7294 H       1  UNL1        0.0626
      9 C           4.7285    0.8327    0.8787 C.ar    1  UNL1       -0.0470
     10 H           5.4164    1.5402    1.3264 H       1  UNL1        0.0626
     11 C           5.2222   -0.1892    0.0650 C.ar    1  UNL1        0.0590
     12 O           7.1500   -1.2118   -0.9103 O.2     1  UNL1       -0.2450
     13 C           6.6828   -0.3432   -0.2126 C.2     1  UNL1        0.3392
     14 O           7.4229    0.5913    0.4005 O.3     1  UNL1       -0.4614
     15 O           0.2961   -0.7849    0.1860 O.3     1  UNL1       -0.4577
     16 O           0.5656    1.0293    1.4895 O.2     1  UNL1       -0.2450
     17 C           8.8377    0.4972    0.1748 C.3     1  UNL1        0.0900
     18 H           9.0264    0.5632   -0.9007 H       1  UNL1        0.0695
     19 H           9.1816   -0.4856    0.5100 H       1  UNL1        0.0695
     20 C           9.4898    1.6256    0.9421 C.3     1  UNL1       -0.0306
     21 H          10.5724    1.5950    0.8007 H       1  UNL1        0.0262
     22 H           9.1212    2.5923    0.5921 H       1  UNL1        0.0262
     23 H           9.2766    1.5384    2.0097 H       1  UNL1        0.0262
     24 C          -9.5321   -0.0203    0.2386 C.2     1  UNL1        0.3368
     25 C          -6.2287   -1.3069   -1.0913 C.ar    1  UNL1       -0.0470
     26 H          -5.8181   -2.0919   -1.7169 H       1  UNL1        0.0626
     27 C          -7.5934   -1.2052   -0.8587 C.ar    1  UNL1       -0.0470
     28 H          -8.2861   -1.9126   -1.2993 H       1  UNL1        0.0626
     29 C          -8.0769   -0.1777   -0.0460 C.ar    1  UNL1        0.0589
     30 C          -7.2029    0.7444    0.5314 C.ar    1  UNL1       -0.0470
     31 H          -7.6141    1.5292    1.1569 H       1  UNL1        0.0626
     32 C          -5.8384    0.6435    0.2983 C.ar    1  UNL1       -0.0470
     33 H          -5.1458    1.3511    0.7384 H       1  UNL1        0.0626
     34 C          -5.3545   -0.3843   -0.5144 C.ar    1  UNL1        0.0590
     35 O          -3.4356   -1.4188   -1.4948 O.2     1  UNL1       -0.2450
     36 C          -3.8986   -0.5450   -0.8008 C.2     1  UNL1        0.3393
     37 O          -3.1519    0.3983   -0.1979 O.3     1  UNL1       -0.4577
     38 O         -10.2879   -0.9565   -0.3641 O.3     1  UNL1       -0.4771
     39 O         -10.0027    0.8489    0.9308 O.2     1  UNL1       -0.2451
     40 C          -1.7456    0.3377   -0.4494 C.3     1  UNL1        0.1268
     41 H          -1.5644    0.1120   -1.5027 H       1  UNL1        0.0732
     42 H          -1.3566    1.3227   -0.1923 H       1  UNL1        0.0732
     43 C          -1.1108   -0.7295    0.4326 C.3     1  UNL1        0.1268
     44 H          -1.4962   -1.7153    0.1728 H       1  UNL1        0.0732
     45 H          -1.2969   -0.5057    1.4854 H       1  UNL1        0.0732
     46 H         -11.2061   -0.7668   -0.1196 H       1  UNL1        0.2954
@<TRIPOS>BOND
     1    26    25    1
     2    41    40    1
     3    35    36    2
     4    28    27    1
     5     3     2    1
     6    25    27   ar
     7    25    34   ar
     8    12    13    2
     9    18    17    1
    10    27    29   ar
    11    36    34    1
    12    36    37    1
    13     5     4    1
    14     2     4   ar
    15     2    11   ar
    16    34    32   ar
    17    40    37    1
    18    40    42    1
    19    40    43    1
    20    38    46    1
    21    38    24    1
    22     4     6   ar
    23    13    11    1
    24    13    14    1
    25    29    24    1
    26    29    30   ar
    27    11     9   ar
    28    44    43    1
    29    17    14    1
    30    17    19    1
    31    17    20    1
    32    15    43    1
    33    15     1    1
    34    24    39    2
    35    32    30   ar
    36    32    33    1
    37    43    45    1
    38     6     1    1
    39     6     7   ar
    40    30    31    1
    41    22    20    1
    42     1    16    2
    43    21    20    1
    44     9     7   ar
    45     9    10    1
    46    20    23    1
    47     7     8    1
