@<TRIPOS>MOLECULE
/home/jramos/PycharmProjects/GeCos/examples/05-PET_trueno_rdkit_mp2/05-PET_g16_conformers/05-PET_1602_gaussian.xyz
 46 47 0 0 0
SMALL
GASTEIGER

@<TRIPOS>ATOM
      1 C           0.9559   -3.0462   -0.2250 C.2     1  UNL1        0.3393
      2 C           4.0992   -1.0660   -0.7483 C.ar    1  UNL1       -0.0470
      3 H           4.9633   -1.0480   -1.4033 H       1  UNL1        0.0626
      4 C           3.0984   -2.0154   -0.8918 C.ar    1  UNL1       -0.0470
      5 H           3.1429   -2.7748   -1.6647 H       1  UNL1        0.0626
      6 C           2.0027   -2.0025   -0.0263 C.ar    1  UNL1        0.0590
      7 C           1.9051   -1.0414    0.9817 C.ar    1  UNL1       -0.0470
      8 H           1.0471   -1.0452    1.6436 H       1  UNL1        0.0626
      9 C           2.9079   -0.0906    1.1248 C.ar    1  UNL1       -0.0470
     10 H           2.8498    0.6633    1.9009 H       1  UNL1        0.0626
     11 C           4.0036   -0.1048    0.2598 C.ar    1  UNL1        0.0590
     12 O           6.0732    0.9130   -0.3604 O.2     1  UNL1       -0.2450
     13 C           5.1100    0.8943    0.3693 C.2     1  UNL1        0.3392
     14 O           4.9153    1.7639    1.3718 O.3     1  UNL1       -0.4614
     15 O          -0.0454   -2.9466    0.6689 O.3     1  UNL1       -0.4577
     16 O           0.9947   -3.8930   -1.0861 O.2     1  UNL1       -0.2450
     17 C           5.9331    2.7654    1.5384 C.3     1  UNL1        0.0900
     18 H           6.9116    2.2920    1.4300 H       1  UNL1        0.0695
     19 H           5.8079    3.1131    2.5650 H       1  UNL1        0.0695
     20 C           5.7561    3.8931    0.5393 C.3     1  UNL1       -0.0306
     21 H           6.4925    4.6777    0.7301 H       1  UNL1        0.0262
     22 H           5.8997    3.5229   -0.4772 H       1  UNL1        0.0262
     23 H           4.7572    4.3268    0.6261 H       1  UNL1        0.0262
     24 C          -5.7675    3.2922    0.2587 C.2     1  UNL1        0.3368
     25 C          -3.5913    0.1948    0.3951 C.ar    1  UNL1       -0.0470
     26 H          -2.7760   -0.2278    0.9706 H       1  UNL1        0.0626
     27 C          -4.1187    1.4395    0.7158 C.ar    1  UNL1       -0.0470
     28 H          -3.7251    2.0093    1.5494 H       1  UNL1        0.0626
     29 C          -5.1663    1.9624   -0.0444 C.ar    1  UNL1        0.0589
     30 C          -5.6873    1.2479   -1.1250 C.ar    1  UNL1       -0.0470
     31 H          -6.5003    1.6848   -1.6945 H       1  UNL1        0.0626
     32 C          -5.1596    0.0063   -1.4464 C.ar    1  UNL1       -0.0470
     33 H          -5.5388   -0.5738   -2.2806 H       1  UNL1        0.0626
     34 C          -4.1139   -0.5191   -0.6849 C.ar    1  UNL1        0.0590
     35 O          -3.9620   -2.4926   -2.0278 O.2     1  UNL1       -0.2450
     36 C          -3.5814   -1.8586   -1.0739 C.2     1  UNL1        0.3393
     37 O          -2.6236   -2.2905   -0.2364 O.3     1  UNL1       -0.4577
     38 O          -5.1941    3.8991    1.3147 O.3     1  UNL1       -0.4771
     39 O          -6.6732    3.7910   -0.3636 O.2     1  UNL1       -0.2451
     40 C          -2.0435   -3.5526   -0.5751 C.3     1  UNL1        0.1268
     41 H          -2.8292   -4.3086   -0.6676 H       1  UNL1        0.0732
     42 H          -1.5257   -3.4769   -1.5344 H       1  UNL1        0.0732
     43 C          -1.0894   -3.9147    0.5386 C.3     1  UNL1        0.1268
     44 H          -0.6585   -4.8998    0.3451 H       1  UNL1        0.0732
     45 H          -1.6042   -3.9092    1.5004 H       1  UNL1        0.0732
     46 H          -5.6521    4.7458    1.4247 H       1  UNL1        0.2954
@<TRIPOS>BOND
     1    33    32    1
     2    35    36    2
     3    31    30    1
     4     5     4    1
     5    42    40    1
     6    32    30   ar
     7    32    34   ar
     8     3     2    1
     9    30    29   ar
    10    16     1    2
    11    36    34    1
    12    36    37    1
    13     4     2   ar
    14     4     6   ar
    15     2    11   ar
    16    34    25   ar
    17    41    40    1
    18    40    37    1
    19    40    43    1
    20    22    20    1
    21    39    24    2
    22    12    13    2
    23     1     6    1
    24     1    15    1
    25    29    24    1
    26    29    27   ar
    27     6     7   ar
    28    24    38    1
    29    11    13    1
    30    11     9   ar
    31    44    43    1
    32    13    14    1
    33    25    27   ar
    34    25    26    1
    35    43    15    1
    36    43    45    1
    37    20    23    1
    38    20    21    1
    39    20    17    1
    40    27    28    1
    41     7     9   ar
    42     7     8    1
    43     9    10    1
    44    38    46    1
    45    14    17    1
    46    18    17    1
    47    17    19    1
