@<TRIPOS>MOLECULE
/home/jramos/PycharmProjects/GeCos/examples/05-PET_trueno_rdkit_mp2/05-PET_g16_conformers/05-PET_1404_gaussian.xyz
 46 47 0 0 0
SMALL
GASTEIGER

@<TRIPOS>ATOM
      1 C           1.0315    0.7292    0.0315 C.2     1  UNL1        0.3393
      2 C           4.2325   -0.5062    1.6382 C.ar    1  UNL1       -0.0470
      3 H           4.5839   -1.1200    2.4604 H       1  UNL1        0.0626
      4 C           2.8777   -0.3137    1.4049 C.ar    1  UNL1       -0.0470
      5 H           2.1333   -0.7750    2.0430 H       1  UNL1        0.0626
      6 C           2.4717    0.4852    0.3336 C.ar    1  UNL1        0.0590
      7 C           3.4147    1.0884   -0.5003 C.ar    1  UNL1       -0.0470
      8 H           3.0645    1.7025   -1.3228 H       1  UNL1        0.0626
      9 C           4.7692    0.8963   -0.2656 C.ar    1  UNL1       -0.0470
     10 H           5.5146    1.3579   -0.9024 H       1  UNL1        0.0626
     11 C           5.1756    0.0975    0.8053 C.ar    1  UNL1        0.0590
     12 O           7.0119   -0.8294    2.0227 O.2     1  UNL1       -0.2450
     13 C           6.6190   -0.1455    1.1076 C.2     1  UNL1        0.3392
     14 O           7.4356    0.4819    0.2494 O.3     1  UNL1       -0.4614
     15 O           0.2130    0.1053    0.8997 O.3     1  UNL1       -0.4577
     16 O           0.6345    1.4092   -0.8850 O.2     1  UNL1       -0.2450
     17 C           8.8385    0.2896    0.4870 C.3     1  UNL1        0.0900
     18 H           9.0575   -0.7813    0.4462 H       1  UNL1        0.0695
     19 H           9.0734    0.6358    1.4977 H       1  UNL1        0.0695
     20 C           9.5834    1.0686   -0.5739 C.3     1  UNL1       -0.0306
     21 H           9.3226    0.7072   -1.5709 H       1  UNL1        0.0262
     22 H          10.6604    0.9527   -0.4333 H       1  UNL1        0.0262
     23 H           9.3380    2.1312   -0.5143 H       1  UNL1        0.0262
     24 C          -9.4862   -0.0730   -0.8533 C.2     1  UNL1        0.3368
     25 C          -5.7466    0.0705   -1.1412 C.ar    1  UNL1       -0.0470
     26 H          -4.9963    0.5244   -1.7777 H       1  UNL1        0.0626
     27 C          -7.0989    0.2716   -1.3807 C.ar    1  UNL1       -0.0470
     28 H          -7.4429    0.8849   -2.2063 H       1  UNL1        0.0626
     29 C          -8.0483   -0.3231   -0.5483 C.ar    1  UNL1        0.0589
     30 C          -7.6526   -1.1212    0.5271 C.ar    1  UNL1       -0.0470
     31 H          -8.4030   -1.5756    1.1634 H       1  UNL1        0.0626
     32 C          -6.3003   -1.3217    0.7673 C.ar    1  UNL1       -0.0470
     33 H          -5.9569   -1.9351    1.5931 H       1  UNL1        0.0626
     34 C          -5.3507   -0.7275   -0.0654 C.ar    1  UNL1        0.0590
     35 O          -3.5243   -1.6597    1.1628 O.2     1  UNL1       -0.2450
     36 C          -3.9124   -0.9795    0.2430 C.2     1  UNL1        0.3393
     37 O          -3.0881   -0.3623   -0.6233 O.3     1  UNL1       -0.4577
     38 O         -10.3188   -0.6898    0.0052 O.3     1  UNL1       -0.4771
     39 O          -9.8822    0.6057   -1.7692 O.2     1  UNL1       -0.2451
     40 C          -1.6898   -0.5808   -0.4197 C.3     1  UNL1        0.1268
     41 H          -1.5083   -1.6289   -0.1712 H       1  UNL1        0.0732
     42 H          -1.2092   -0.3178   -1.3618 H       1  UNL1        0.0732
     43 C          -1.1864    0.3189    0.7014 C.3     1  UNL1        0.1268
     44 H          -1.3729    1.3664    0.4542 H       1  UNL1        0.0732
     45 H          -1.6634    0.0532    1.6446 H       1  UNL1        0.0732
     46 H         -11.2185   -0.4672   -0.2774 H       1  UNL1        0.2954
@<TRIPOS>BOND
     1    28    27    1
     2    26    25    1
     3    39    24    2
     4    21    20    1
     5    27    25   ar
     6    27    29   ar
     7    42    40    1
     8     8     7    1
     9    25    34   ar
    10    10     9    1
    11    16     1    2
    12    24    29    1
    13    24    38    1
    14    37    40    1
    15    37    36    1
    16    20    23    1
    17    20    22    1
    18    20    17    1
    19    29    30   ar
    20     7     9   ar
    21     7     6   ar
    22    40    41    1
    23    40    43    1
    24    46    38    1
    25     9    11   ar
    26    34    36    1
    27    34    32   ar
    28     1     6    1
    29     1    15    1
    30    36    35    2
    31    14    17    1
    32    14    13    1
    33     6     4   ar
    34    18    17    1
    35    44    43    1
    36    17    19    1
    37    30    32   ar
    38    30    31    1
    39    43    15    1
    40    43    45    1
    41    32    33    1
    42    11    13    1
    43    11     2   ar
    44    13    12    2
    45     4     2   ar
    46     4     5    1
    47     2     3    1
