@<TRIPOS>MOLECULE
/home/jramos/Documentos/___MIS_PETICIONES_PROYECTOS___/2019-Proyecto-PN-GenCon/13-Resultados/2022-Spectra_IR/11-EVOH-EVA_extractMD/EVOH-EVA_extractMD_g16_results/C12H26O3_pair_026_087.xyz
 41 39 0 0 0
SMALL
GASTEIGER

@<TRIPOS>ATOM
      1 H          -4.7666   -0.5400   -0.5179 H       1  UNL11       0.0231
      2 C          -3.8490   -0.9466   -0.0684 C.3     1  UNL11      -0.0629
      3 C          -3.1867    0.1127    0.8347 C.3     1  UNL11      -0.0297
      4 H          -4.1085   -1.8540    0.4993 H       1  UNL11       0.0231
      5 H          -3.1748   -1.2455   -0.8895 H       1  UNL11       0.0231
      6 H          -2.2513   -0.2841    1.2670 H       1  UNL11       0.0287
      7 H          -3.8496    0.3560    1.6841 H       1  UNL11       0.0287
      8 C          -2.8691    1.4250    0.0944 C.3     1  UNL11       0.0548
      9 C          -2.0690    2.4211    0.9660 C.3     1  UNL11      -0.0297
     10 H          -2.2694    1.1877   -0.8107 H       1  UNL11       0.0593
     11 H          -1.1237    1.9396    1.2731 H       1  UNL11       0.0287
     12 H          -2.6454    2.6159    1.8873 H       1  UNL11       0.0287
     13 O          -4.1487    1.9844   -0.3042 O.3     1  UNL11      -0.3918
     14 H          -3.9701    2.6580   -0.9868 H       1  UNL11       0.2098
     15 C          -1.7654    3.7518    0.2478 C.3     1  UNL11      -0.0629
     16 H          -1.1970    3.5837   -0.6832 H       1  UNL11       0.0231
     17 H          -1.1726    4.4276    0.8835 H       1  UNL11       0.0231
     18 H          -2.6978    4.2795   -0.0119 H       1  UNL11       0.0231
     19 H          -0.0713    1.0535   -2.3588 H       2  UNL22       0.0231
     20 C           0.5634    0.8464   -1.4829 C.3     2  UNL22      -0.0619
     21 C           0.3289   -0.5883   -0.9662 C.3     2  UNL22      -0.0185
     22 H           1.6139    0.9839   -1.7818 H       2  UNL22       0.0231
     23 H           0.3306    1.6033   -0.7188 H       2  UNL22       0.0231
     24 H           0.4836   -1.3118   -1.7823 H       2  UNL22       0.0298
     25 H          -0.7157   -0.7098   -0.6320 H       2  UNL22       0.0298
     26 C           1.2459   -1.0098    0.2020 C.3     2  UNL22       0.1026
     27 C           1.1078   -0.1741    1.4846 C.3     2  UNL22      -0.0185
     28 H           1.0688   -2.0751    0.4248 H       2  UNL22       0.0733
     29 H           0.0411   -0.1742    1.7694 H       2  UNL22       0.0298
     30 H           1.3776    0.8731    1.2679 H       2  UNL22       0.0298
     31 O           2.6633   -0.8773   -0.2119 O.3     2  UNL22      -0.4616
     32 C           3.1943   -1.9099   -0.9440 C.2     2  UNL22       0.3042
     33 O           2.5783   -2.9152   -1.2750 O.2     2  UNL22      -0.2512
     34 C           4.6504   -1.6150   -1.2790 C.3     2  UNL22       0.0332
     35 H           5.0727   -2.4562   -1.8410 H       2  UNL22       0.0342
     36 H           4.7185   -0.6928   -1.8768 H       2  UNL22       0.0342
     37 H           5.2263   -1.4496   -0.3556 H       2  UNL22       0.0342
     38 C           1.9670   -0.7077    2.6490 C.3     2  UNL22      -0.0619
     39 H           1.6829   -1.7406    2.9107 H       2  UNL22       0.0231
     40 H           1.8486   -0.0856    3.5499 H       2  UNL22       0.0231
     41 H           3.0317   -0.7119    2.3712 H       2  UNL22       0.0231
@<TRIPOS>BOND
     1    19    20    1
     2    22    20    1
     3    36    34    1
     4    16    15    1
     5    20    23    1
     6    20    21    1
     7    14    13    1
     8    24    21    1
     9    18    15    1
    10    35    34    1
    11    10     8    1
    12    34    32    1
    13    34    37    1
    14    15    17    1
    15    15     9    1
    16    21    25    1
    17    21    26    1
    18    13     8    1
    19    32    33    2
    20    32    31    1
    21     5     2    1
    22     8     9    1
    23     8     3    1
    24    31    26    1
    25     1     2    1
    26     9    11    1
    27     9    12    1
    28    26    28    1
    29    26    27    1
    30     2     3    1
    31     2     4    1
    32    30    27    1
    33     3     6    1
    34     3     7    1
    35    27    29    1
    36    27    38    1
    37    41    38    1
    38    38    39    1
    39    38    40    1
