@<TRIPOS>MOLECULE
/home/jramos/Documentos/___MIS_PETICIONES_PROYECTOS___/2019-Proyecto-PN-GenCon/13-Resultados/2022-Spectra_IR/11-EVOH-EVA_extractMD/EVOH-EVA_extractMD_g16_results/C12H26O3_pair_012_022.xyz
 41 39 0 0 0
SMALL
GASTEIGER

@<TRIPOS>ATOM
      1 H          -3.8921    1.3100    2.8084 H       1  UNL11       0.0231
      2 C          -4.8773    1.0951    2.3719 C.3     1  UNL11      -0.0629
      3 C          -4.8116   -0.0111    1.2964 C.3     1  UNL11      -0.0297
      4 H          -5.5486    0.8000    3.1940 H       1  UNL11       0.0231
      5 H          -5.2564    2.0302    1.9328 H       1  UNL11       0.0231
      6 H          -5.8434   -0.3529    1.0841 H       1  UNL11       0.0287
      7 H          -4.2787   -0.8994    1.6805 H       1  UNL11       0.0287
      8 C          -4.1816    0.3922   -0.0675 C.3     1  UNL11       0.0548
      9 C          -2.6476    0.5871   -0.1032 C.3     1  UNL11      -0.0297
     10 H          -4.4001   -0.4426   -0.7697 H       1  UNL11       0.0593
     11 H          -2.3718    0.6914   -1.1668 H       1  UNL11       0.0287
     12 H          -2.1772   -0.3479    0.2474 H       1  UNL11       0.0287
     13 O          -4.7606    1.6181   -0.5817 O.3     1  UNL11      -0.3918
     14 H          -5.7300    1.4961   -0.5893 H       1  UNL11       0.2098
     15 C          -2.0854    1.7997    0.6712 C.3     1  UNL11      -0.0629
     16 H          -2.0909    1.6383    1.7591 H       1  UNL11       0.0231
     17 H          -2.6779    2.7006    0.4564 H       1  UNL11       0.0231
     18 H          -1.0432    1.9953    0.3740 H       1  UNL11       0.0231
     19 H           1.1056    1.4378    1.4531 H       2  UNL22       0.0231
     20 C           2.1992    1.3435    1.3635 C.3     2  UNL22      -0.0619
     21 C           2.6544    1.2546   -0.1086 C.3     2  UNL22      -0.0185
     22 H           2.6491    2.2186    1.8578 H       2  UNL22       0.0231
     23 H           2.5055    0.4430    1.9181 H       2  UNL22       0.0231
     24 H           3.7540    1.2876   -0.1673 H       2  UNL22       0.0298
     25 H           2.2824    2.1259   -0.6772 H       2  UNL22       0.0298
     26 C           2.1921   -0.0186   -0.8503 C.3     2  UNL22       0.1026
     27 C           0.6704   -0.2074   -0.9331 C.3     2  UNL22      -0.0185
     28 H           2.6342   -0.0231   -1.8605 H       2  UNL22       0.0733
     29 H           0.2396    0.7179   -1.3531 H       2  UNL22       0.0298
     30 H           0.2647   -0.3052    0.0864 H       2  UNL22       0.0298
     31 O           2.7054   -1.2160   -0.1413 O.3     2  UNL22      -0.4616
     32 C           3.9990   -1.5878   -0.4073 C.2     2  UNL22       0.3042
     33 O           4.7469   -1.0003   -1.1790 O.2     2  UNL22      -0.2512
     34 C           4.3594   -2.8292    0.3986 C.3     2  UNL22       0.0332
     35 H           3.6541   -3.6446    0.1762 H       2  UNL22       0.0342
     36 H           5.3825   -3.1381    0.1543 H       2  UNL22       0.0342
     37 H           4.2807   -2.6127    1.4753 H       2  UNL22       0.0342
     38 C           0.2486   -1.4223   -1.7826 C.3     2  UNL22      -0.0619
     39 H          -0.8474   -1.5256   -1.8056 H       2  UNL22       0.0231
     40 H           0.6744   -2.3490   -1.3688 H       2  UNL22       0.0231
     41 H           0.6021   -1.3237   -2.8225 H       2  UNL22       0.0231
@<TRIPOS>BOND
     1    37    34    1
     2     4     2    1
     3    35    34    1
     4     7     3    1
     5    34    36    1
     6    34    32    1
     7     1     2    1
     8     2     3    1
     9     2     5    1
    10     6     3    1
    11    23    20    1
    12     3     8    1
    13    16    15    1
    14    31    32    1
    15    31    26    1
    16    12     9    1
    17    32    33    2
    18    19    20    1
    19    20    22    1
    20    20    21    1
    21    30    27    1
    22    40    38    1
    23     8    10    1
    24     8     9    1
    25     8    13    1
    26     9    15    1
    27     9    11    1
    28    15    18    1
    29    15    17    1
    30    39    38    1
    31    38    27    1
    32    38    41    1
    33    27    26    1
    34    27    29    1
    35    26    21    1
    36    26    28    1
    37    21    24    1
    38    21    25    1
    39    14    13    1
