@<TRIPOS>MOLECULE
/home/jramos/Documentos/___MIS_PETICIONES_PROYECTOS___/2019-Proyecto-PN-GenCon/13-Resultados/2022-Spectra_IR/11-EVOH-EVA_extractMD/EVOH-EVA_extractMD_g16_results/C12H26O3_pair_058_089.xyz
 41 39 0 0 0
SMALL
GASTEIGER

@<TRIPOS>ATOM
      1 H          -2.9942    0.5727    2.6376 H       1  UNL11       0.0231
      2 C          -2.4711    0.2105    1.7383 C.3     1  UNL11      -0.0629
      3 C          -3.0144    0.8901    0.4648 C.3     1  UNL11      -0.0297
      4 H          -1.3931    0.3998    1.8665 H       1  UNL11       0.0231
      5 H          -2.6025   -0.8811    1.6867 H       1  UNL11       0.0231
      6 H          -2.9335    1.9887    0.5631 H       1  UNL11       0.0287
      7 H          -4.0879    0.6572    0.3483 H       1  UNL11       0.0287
      8 C          -2.2828    0.4620   -0.8304 C.3     1  UNL11       0.0548
      9 C          -2.8722    1.1373   -2.0837 C.3     1  UNL11      -0.0297
     10 H          -1.2167    0.7655   -0.7408 H       1  UNL11       0.0593
     11 H          -2.8775    2.2301   -1.9224 H       1  UNL11       0.0287
     12 H          -3.9271    0.8237   -2.1792 H       1  UNL11       0.0287
     13 O          -2.3636   -0.9671   -1.0380 O.3     1  UNL11      -0.3918
     14 H          -1.7252   -1.3779   -0.4130 H       1  UNL11       0.2098
     15 C          -2.1062    0.7944   -3.3768 C.3     1  UNL11      -0.0629
     16 H          -1.0458    1.0918   -3.3004 H       1  UNL11       0.0231
     17 H          -2.5372    1.3104   -4.2498 H       1  UNL11       0.0231
     18 H          -2.1397   -0.2888   -3.5638 H       1  UNL11       0.0231
     19 H           0.1191    2.1984    1.2247 H       2  UNL22       0.0231
     20 C           1.0283    2.4087    0.6383 C.3     2  UNL22      -0.0619
     21 C           2.2575    1.6917    1.2333 C.3     2  UNL22      -0.0185
     22 H           0.8445    2.0744   -0.3941 H       2  UNL22       0.0231
     23 H           1.1754    3.4998    0.6206 H       2  UNL22       0.0231
     24 H           2.4467    2.0511    2.2603 H       2  UNL22       0.0298
     25 H           3.1601    1.9298    0.6434 H       2  UNL22       0.0298
     26 C           2.1000    0.1636    1.3002 C.3     2  UNL22       0.1026
     27 C           3.3059   -0.5704    1.9110 C.3     2  UNL22      -0.0185
     28 H           1.1801   -0.1063    1.8421 H       2  UNL22       0.0733
     29 H           3.4443   -0.1806    2.9352 H       2  UNL22       0.0298
     30 H           4.2135   -0.2985    1.3434 H       2  UNL22       0.0298
     31 O           1.9433   -0.3047   -0.1013 O.3     2  UNL22      -0.4616
     32 C           0.8753   -1.0925   -0.4017 C.2     2  UNL22       0.3042
     33 O           0.0463   -1.4838    0.4249 O.2     2  UNL22      -0.2512
     34 C           0.8274   -1.4389   -1.8784 C.3     2  UNL22       0.0332
     35 H          -0.2153   -1.3458   -2.2136 H       2  UNL22       0.0342
     36 H           1.4930   -0.8001   -2.4719 H       2  UNL22       0.0342
     37 H           1.1291   -2.4913   -2.0032 H       2  UNL22       0.0342
     38 C           3.1378   -2.1034    1.9464 C.3     2  UNL22      -0.0619
     39 H           3.9924   -2.5827    2.4484 H       2  UNL22       0.0231
     40 H           3.0729   -2.5128    0.9266 H       2  UNL22       0.0231
     41 H           2.2173   -2.3908    2.4784 H       2  UNL22       0.0231
@<TRIPOS>BOND
     1    23    20    1
     2    25    21    1
     3    17    15    1
     4    16    15    1
     5    22    20    1
     6    20    21    1
     7    20    19    1
     8    21    24    1
     9    21    26    1
    10    15    18    1
    11    15     9    1
    12    11     9    1
    13    36    34    1
    14    30    27    1
    15     9    12    1
    16     9     8    1
    17    31    26    1
    18    31    32    1
    19    10     8    1
    20    34    35    1
    21    34    32    1
    22    34    37    1
    23    26    27    1
    24    26    28    1
    25    27    29    1
    26    27    38    1
    27     6     3    1
    28     8     3    1
    29     8    13    1
    30    32    33    2
    31     3     7    1
    32     3     2    1
    33    40    38    1
    34    13    14    1
    35    38    39    1
    36    38    41    1
    37     4     2    1
    38     2     1    1
    39     2     5    1
