@<TRIPOS>MOLECULE
/home/jramos/Documentos/___MIS_PETICIONES_PROYECTOS___/2019-Proyecto-PN-GenCon/13-Resultados/2022-Spectra_IR/11-EVOH-EVA_extractMD/EVOH-EVA_extractMD_g16_results/C12H26O3_pair_004_088.xyz
 41 39 0 0 0
SMALL
GASTEIGER

@<TRIPOS>ATOM
      1 H          -3.0956   -2.6665   -0.8151 H       1  UNL11       0.0231
      2 C          -3.1843   -2.5027    0.2688 C.3     1  UNL11      -0.0629
      3 C          -3.5373   -1.0306    0.5597 C.3     1  UNL11      -0.0297
      4 H          -3.9536   -3.1871    0.6611 H       1  UNL11       0.0231
      5 H          -2.2212   -2.7786    0.7325 H       1  UNL11       0.0231
      6 H          -3.6721   -0.8784    1.6453 H       1  UNL11       0.0287
      7 H          -4.4988   -0.7744    0.0797 H       1  UNL11       0.0287
      8 C          -2.4711   -0.0385    0.0566 C.3     1  UNL11       0.0548
      9 C          -2.8058    1.4242    0.4367 C.3     1  UNL11      -0.0297
     10 H          -1.4994   -0.3038    0.5279 H       1  UNL11       0.0593
     11 H          -2.8814    1.4886    1.5382 H       1  UNL11       0.0287
     12 H          -3.8049    1.6663    0.0326 H       1  UNL11       0.0287
     13 O          -2.3756   -0.2056   -1.3770 O.3     1  UNL11      -0.3918
     14 H          -1.5107    0.1766   -1.6470 H       1  UNL11       0.2098
     15 C          -1.7755    2.4507   -0.0769 C.3     1  UNL11      -0.0629
     16 H          -1.7331    2.4470   -1.1767 H       1  UNL11       0.0231
     17 H          -0.7612    2.2183    0.2858 H       1  UNL11       0.0231
     18 H          -2.0329    3.4711    0.2489 H       1  UNL11       0.0231
     19 H           3.5817   -0.1291   -1.9379 H       2  UNL22       0.0231
     20 C           3.9033    0.8123   -1.4668 C.3     2  UNL22      -0.0619
     21 C           3.7930    0.7214    0.0691 C.3     2  UNL22      -0.0185
     22 H           4.9415    1.0071   -1.7772 H       2  UNL22       0.0231
     23 H           3.2656    1.6173   -1.8648 H       2  UNL22       0.0231
     24 H           4.1880    1.6429    0.5326 H       2  UNL22       0.0298
     25 H           4.4098   -0.1129    0.4477 H       2  UNL22       0.0298
     26 C           2.3500    0.5386    0.5693 C.3     2  UNL22       0.1026
     27 C           2.2206    0.4214    2.0970 C.3     2  UNL22      -0.0185
     28 H           1.7132    1.3527    0.1892 H       2  UNL22       0.0733
     29 H           2.6687    1.3290    2.5387 H       2  UNL22       0.0298
     30 H           2.8309   -0.4323    2.4404 H       2  UNL22       0.0298
     31 O           1.8293   -0.7332    0.0045 O.3     2  UNL22      -0.4616
     32 C           0.8685   -0.6656   -0.9569 C.2     2  UNL22       0.3042
     33 O           0.4285    0.3878   -1.4263 O.2     2  UNL22      -0.2512
     34 C           0.4044   -2.0445   -1.3887 C.3     2  UNL22       0.0332
     35 H           0.7262   -2.8242   -0.6874 H       2  UNL22       0.0342
     36 H          -0.6906   -2.0193   -1.4797 H       2  UNL22       0.0342
     37 H           0.8210   -2.2599   -2.3858 H       2  UNL22       0.0342
     38 C           0.7635    0.2616    2.5779 C.3     2  UNL22      -0.0619
     39 H           0.7131    0.1952    3.6757 H       2  UNL22       0.0231
     40 H           0.3144   -0.6529    2.1616 H       2  UNL22       0.0231
     41 H           0.1413    1.1141    2.2605 H       2  UNL22       0.0231
@<TRIPOS>BOND
     1    16    15    1
     2    18    15    1
     3    23    20    1
     4    15    17    1
     5    15     9    1
     6    14    13    1
     7    22    20    1
     8    12     9    1
     9    33    32    2
    10    20    19    1
    11    20    21    1
    12    13     8    1
    13     9     8    1
    14     9    11    1
    15    28    26    1
    16    37    34    1
    17    24    21    1
    18    32    34    1
    19    32    31    1
    20     8    10    1
    21     8     3    1
    22    21    26    1
    23    21    25    1
    24     7     3    1
    25    36    34    1
    26    26    31    1
    27    26    27    1
    28    34    35    1
    29     3     6    1
    30     3     2    1
    31     1     2    1
    32    41    38    1
    33    29    27    1
    34     2     5    1
    35     2     4    1
    36    27    38    1
    37    27    30    1
    38    38    40    1
    39    38    39    1
