@<TRIPOS>MOLECULE
/home/jramos/Documentos/___MIS_PETICIONES_PROYECTOS___/2019-Proyecto-PN-GenCon/13-Resultados/2022-Spectra_IR/11-EVOH-EVA_extractMD/EVOH-EVA_extractMD_g16_results/C12H26O3_pair_037_041.xyz
 41 39 0 0 0
SMALL
GASTEIGER

@<TRIPOS>ATOM
      1 H          -1.0874   -1.8352    0.3626 H       1  UNL11       0.0231
      2 C          -1.8521   -1.6842   -0.4179 C.3     1  UNL11      -0.0629
      3 C          -2.9633   -0.7300    0.0657 C.3     1  UNL11      -0.0297
      4 H          -1.3456   -1.2780   -1.3035 H       1  UNL11       0.0231
      5 H          -2.2675   -2.6711   -0.6787 H       1  UNL11       0.0231
      6 H          -3.5138   -1.1801    0.9110 H       1  UNL11       0.0287
      7 H          -3.6972   -0.5685   -0.7439 H       1  UNL11       0.0287
      8 C          -2.4397    0.6439    0.5212 C.3     1  UNL11       0.0548
      9 C          -3.5670    1.5757    1.0218 C.3     1  UNL11      -0.0297
     10 H          -1.7197    0.4893    1.3536 H       1  UNL11       0.0593
     11 H          -4.1084    1.0598    1.8349 H       1  UNL11       0.0287
     12 H          -4.2870    1.7253    0.1982 H       1  UNL11       0.0287
     13 O          -1.7449    1.2167   -0.6191 O.3     1  UNL11      -0.3918
     14 H          -1.3875    2.0825   -0.3453 H       1  UNL11       0.2098
     15 C          -3.0574    2.9406    1.5324 C.3     1  UNL11      -0.0629
     16 H          -2.3137    2.8138    2.3373 H       1  UNL11       0.0231
     17 H          -3.8815    3.5543    1.9279 H       1  UNL11       0.0231
     18 H          -2.5833    3.5254    0.7254 H       1  UNL11       0.0231
     19 H           4.2050   -0.5438    0.1117 H       2  UNL22       0.0231
     20 C           4.0364    0.5433    0.0650 C.3     2  UNL22      -0.0619
     21 C           2.6898    0.8546   -0.6200 C.3     2  UNL22      -0.0185
     22 H           4.0753    0.9332    1.0951 H       2  UNL22       0.0231
     23 H           4.8726    0.9946   -0.4915 H       2  UNL22       0.0231
     24 H           2.7275    0.5716   -1.6827 H       2  UNL22       0.0298
     25 H           2.4916    1.9408   -0.5973 H       2  UNL22       0.0298
     26 C           1.4713    0.1373    0.0009 C.3     2  UNL22       0.1026
     27 C           1.2354    0.3967    1.4998 C.3     2  UNL22      -0.0185
     28 H           0.5645    0.3963   -0.5680 H       2  UNL22       0.0733
     29 H           2.1054    0.0427    2.0775 H       2  UNL22       0.0298
     30 H           0.3819   -0.2256    1.8152 H       2  UNL22       0.0298
     31 O           1.6514   -1.3339   -0.0922 O.3     2  UNL22      -0.4616
     32 C           1.4030   -1.9130   -1.3090 C.2     2  UNL22       0.3042
     33 O           1.1055   -1.2994   -2.3270 O.2     2  UNL22      -0.2512
     34 C           1.4914   -3.4289   -1.1983 C.3     2  UNL22       0.0332
     35 H           1.6508   -3.8590   -2.1948 H       2  UNL22       0.0342
     36 H           2.2901   -3.7358   -0.5086 H       2  UNL22       0.0342
     37 H           0.5351   -3.8048   -0.7992 H       2  UNL22       0.0342
     38 C           0.9518    1.8779    1.8237 C.3     2  UNL22      -0.0619
     39 H           0.6830    2.0045    2.8840 H       2  UNL22       0.0231
     40 H           0.1129    2.2615    1.2208 H       2  UNL22       0.0231
     41 H           1.8260    2.5165    1.6220 H       2  UNL22       0.0231
@<TRIPOS>BOND
     1    29    27    1
     2    30    27    1
     3    39    38    1
     4    36    34    1
     5     6     3    1
     6     1     2    1
     7    37    34    1
     8    27    38    1
     9    27    26    1
    10    11     9    1
    11    10     8    1
    12    38    41    1
    13    38    40    1
    14    34    35    1
    15    34    32    1
    16     5     2    1
    17    16    15    1
    18    22    20    1
    19    31    26    1
    20    31    32    1
    21    19    20    1
    22     2     3    1
    23     2     4    1
    24     3     8    1
    25     3     7    1
    26     8     9    1
    27     8    13    1
    28     9    15    1
    29     9    12    1
    30    26    28    1
    31    26    21    1
    32    20    23    1
    33    20    21    1
    34    17    15    1
    35    15    18    1
    36    32    33    2
    37    21    25    1
    38    21    24    1
    39    13    14    1
