@<TRIPOS>MOLECULE
/home/jramos/Documentos/___MIS_PETICIONES_PROYECTOS___/2019-Proyecto-PN-GenCon/13-Resultados/2022-Spectra_IR/11-EVOH-EVA_extractMD/EVOH-EVA_extractMD_g16_results/C12H26O3_pair_001_018.xyz
 41 39 0 0 0
SMALL
GASTEIGER

@<TRIPOS>ATOM
      1 H          -4.4828   -2.4128   -0.2991 H       1  UNL11       0.0231
      2 C          -4.0185   -1.5960    0.2763 C.3     1  UNL11      -0.0629
      3 C          -3.3376   -0.5684   -0.6494 C.3     1  UNL11      -0.0297
      4 H          -4.8059   -1.1200    0.8851 H       1  UNL11       0.0231
      5 H          -3.2818   -2.0295    0.9689 H       1  UNL11       0.0231
      6 H          -4.0829   -0.1057   -1.3218 H       1  UNL11       0.0287
      7 H          -2.6000   -1.0769   -1.2970 H       1  UNL11       0.0287
      8 C          -2.6046    0.5493    0.1303 C.3     1  UNL11       0.0548
      9 C          -1.9477    1.5903   -0.8102 C.3     1  UNL11      -0.0297
     10 H          -3.3329    1.0679    0.7832 H       1  UNL11       0.0593
     11 H          -2.6985    1.9493   -1.5375 H       1  UNL11       0.0287
     12 H          -1.1679    1.0689   -1.3952 H       1  UNL11       0.0287
     13 O          -1.6265   -0.0094    1.0420 O.3     1  UNL11      -0.3918
     14 H          -1.0496   -0.5909    0.4941 H       1  UNL11       0.2098
     15 C          -1.3398    2.7865   -0.0500 C.3     1  UNL11      -0.0629
     16 H          -2.1275    3.3788    0.4453 H       1  UNL11       0.0231
     17 H          -0.7864    3.4606   -0.7235 H       1  UNL11       0.0231
     18 H          -0.6519    2.4361    0.7341 H       1  UNL11       0.0231
     19 H           1.0223    2.0339   -1.7467 H       2  UNL22       0.0231
     20 C           2.1054    1.9072   -1.5941 C.3     2  UNL22      -0.0619
     21 C           2.4343    1.7007   -0.1018 C.3     2  UNL22      -0.0185
     22 H           2.4327    1.0407   -2.1894 H       2  UNL22       0.0231
     23 H           2.6105    2.8014   -1.9913 H       2  UNL22       0.0231
     24 H           2.1134    2.5832    0.4785 H       2  UNL22       0.0298
     25 H           3.5251    1.6037    0.0404 H       2  UNL22       0.0298
     26 C           1.7384    0.4757    0.5125 C.3     2  UNL22       0.1026
     27 C           2.0659    0.2399    1.9957 C.3     2  UNL22      -0.0185
     28 H           0.6520    0.5475    0.3800 H       2  UNL22       0.0733
     29 H           1.8394    1.1773    2.5338 H       2  UNL22       0.0298
     30 H           3.1532    0.0718    2.0941 H       2  UNL22       0.0298
     31 O           2.2201   -0.7103   -0.2526 O.3     2  UNL22      -0.4616
     32 C           1.3205   -1.5508   -0.8216 C.2     2  UNL22       0.3042
     33 O           0.0942   -1.4705   -0.7224 O.2     2  UNL22      -0.2512
     34 C           2.0341   -2.6221   -1.6325 C.3     2  UNL22       0.0332
     35 H           1.3106   -3.3785   -1.9582 H       2  UNL22       0.0342
     36 H           2.5077   -2.1604   -2.5134 H       2  UNL22       0.0342
     37 H           2.8326   -3.0853   -1.0346 H       2  UNL22       0.0342
     38 C           1.2733   -0.9246    2.6248 C.3     2  UNL22      -0.0619
     39 H           0.1914   -0.7298    2.5798 H       2  UNL22       0.0231
     40 H           1.5571   -1.0668    3.6793 H       2  UNL22       0.0231
     41 H           1.4745   -1.8693    2.0951 H       2  UNL22       0.0231
@<TRIPOS>BOND
     1    36    34    1
     2    22    20    1
     3    23    20    1
     4    35    34    1
     5    19    20    1
     6    34    37    1
     7    34    32    1
     8    20    21    1
     9    11     9    1
    10    12     9    1
    11     6     3    1
    12     7     3    1
    13    32    33    2
    14    32    31    1
    15     9    15    1
    16     9     8    1
    17    17    15    1
    18     3     8    1
    19     3     2    1
    20     1     2    1
    21    31    26    1
    22    21    25    1
    23    21    24    1
    24    21    26    1
    25    15    16    1
    26    15    18    1
    27     8    10    1
    28     8    13    1
    29     2     4    1
    30     2     5    1
    31    28    26    1
    32    14    13    1
    33    26    27    1
    34    27    30    1
    35    27    29    1
    36    27    38    1
    37    41    38    1
    38    39    38    1
    39    38    40    1
