@<TRIPOS>MOLECULE
/home/jramos/Documentos/___MIS_PETICIONES_PROYECTOS___/2019-Proyecto-PN-GenCon/13-Resultados/2022-Spectra_IR/11-EVOH-EVA_extractMD/EVOH-EVA_extractMD_g16_results/C12H26O3_pair_003_098.xyz
 41 39 0 0 0
SMALL
GASTEIGER

@<TRIPOS>ATOM
      1 H          -3.2823   -2.0300    0.9680 H       1  UNL11       0.0231
      2 C          -4.0189   -1.5960    0.2757 C.3     1  UNL11      -0.0629
      3 C          -3.3379   -0.5680   -0.6496 C.3     1  UNL11      -0.0297
      4 H          -4.4836   -2.4123   -0.3002 H       1  UNL11       0.0231
      5 H          -4.8062   -1.1201    0.8848 H       1  UNL11       0.0231
      6 H          -4.0831   -0.1050   -1.3218 H       1  UNL11       0.0287
      7 H          -2.6004   -1.0764   -1.2974 H       1  UNL11       0.0287
      8 C          -2.6047    0.5493    0.1306 C.3     1  UNL11       0.0548
      9 C          -1.9480    1.5908   -0.8094 C.3     1  UNL11      -0.0297
     10 H          -3.3330    1.0675    0.7839 H       1  UNL11       0.0593
     11 H          -2.6989    1.9504   -1.5364 H       1  UNL11       0.0287
     12 H          -1.1684    1.0697   -1.3949 H       1  UNL11       0.0287
     13 O          -1.6267   -0.0099    1.0419 O.3     1  UNL11      -0.3918
     14 H          -1.0498   -0.5913    0.4938 H       1  UNL11       0.2098
     15 C          -1.3399    2.7864   -0.0487 C.3     1  UNL11      -0.0629
     16 H          -0.7867    3.4610   -0.7221 H       1  UNL11       0.0231
     17 H          -0.6516    2.4356    0.7349 H       1  UNL11       0.0231
     18 H          -2.1274    3.3785    0.4473 H       1  UNL11       0.0231
     19 H           1.0229    2.0321   -1.7483 H       2  UNL22       0.0231
     20 C           2.1061    1.9066   -1.5948 C.3     2  UNL22      -0.0619
     21 C           2.4341    1.7008   -0.1022 C.3     2  UNL22      -0.0185
     22 H           2.4346    1.0403   -2.1896 H       2  UNL22       0.0231
     23 H           2.6105    2.8011   -1.9918 H       2  UNL22       0.0231
     24 H           2.1125    2.5834    0.4775 H       2  UNL22       0.0298
     25 H           3.5248    1.6043    0.0406 H       2  UNL22       0.0298
     26 C           1.7383    0.4757    0.5121 C.3     2  UNL22       0.1026
     27 C           2.0656    0.2405    1.9955 C.3     2  UNL22      -0.0185
     28 H           0.6519    0.5474    0.3795 H       2  UNL22       0.0733
     29 H           1.8385    1.1779    2.5334 H       2  UNL22       0.0298
     30 H           3.1529    0.0728    2.0943 H       2  UNL22       0.0298
     31 O           2.2203   -0.7103   -0.2526 O.3     2  UNL22      -0.4616
     32 C           1.3209   -1.5510   -0.8215 C.2     2  UNL22       0.3042
     33 O           0.0945   -1.4708   -0.7226 O.2     2  UNL22      -0.2512
     34 C           2.0347   -2.6224   -1.6321 C.3     2  UNL22       0.0332
     35 H           2.5082   -2.1608   -2.5131 H       2  UNL22       0.0342
     36 H           2.8335   -3.0851   -1.0341 H       2  UNL22       0.0342
     37 H           1.3114   -3.3790   -1.9575 H       2  UNL22       0.0342
     38 C           1.2732   -0.9242    2.6247 C.3     2  UNL22      -0.0619
     39 H           1.4749   -1.8690    2.0953 H       2  UNL22       0.0231
     40 H           0.1913   -0.7298    2.5795 H       2  UNL22       0.0231
     41 H           1.5570   -1.0660    3.6793 H       2  UNL22       0.0231
@<TRIPOS>BOND
     1    41    38    1
     2    38    40    1
     3    38    39    1
     4    38    27    1
     5    29    27    1
     6    30    27    1
     7    27    26    1
     8    13    14    1
     9    13     8    1
    10     1     2    1
    11     5     2    1
    12    10     8    1
    13    17    15    1
    14    26    28    1
    15    26    21    1
    16    26    31    1
    17    24    21    1
    18    18    15    1
    19     2     4    1
    20     2     3    1
    21     8     3    1
    22     8     9    1
    23    25    21    1
    24    15    16    1
    25    15     9    1
    26    21    20    1
    27    31    32    1
    28     3     7    1
    29     3     6    1
    30    33    32    2
    31     9    12    1
    32     9    11    1
    33    32    34    1
    34    36    34    1
    35    20    19    1
    36    20    23    1
    37    20    22    1
    38    34    37    1
    39    34    35    1
