@<TRIPOS>MOLECULE
/home/jramos/PycharmProjects/GeCos/examples/06-PVA_trueno_openbabel_mp2/06-PVA_g16_conformers/06-PVA_005_gaussian.xyz
 18 17 0 0 0
SMALL
GASTEIGER

@<TRIPOS>ATOM
      1 C          -2.2684    1.1404    2.4855 C.3     1  UNL1       -0.0629
      2 H          -2.1268    1.7544    3.3743 H       1  UNL1        0.0231
      3 H          -1.8040    0.1726    2.6609 H       1  UNL1        0.0231
      4 H          -3.3397    0.9890    2.3589 H       1  UNL1        0.0231
      5 C          -1.6698    1.7944    1.2451 C.3     1  UNL1       -0.0297
      6 H          -1.9375    1.2133    0.3609 H       1  UNL1        0.0287
      7 H          -2.0848    2.7940    1.1017 H       1  UNL1        0.0287
      8 C          -0.1497    1.8878    1.2696 C.3     1  UNL1        0.0548
      9 H           0.1721    2.4110    0.3571 H       1  UNL1        0.0593
     10 C           0.4206    2.6352    2.4718 C.3     1  UNL1       -0.0297
     11 H           1.5122    2.6233    2.3873 H       1  UNL1        0.0287
     12 H           0.1758    2.0785    3.3774 H       1  UNL1        0.0287
     13 C          -0.0570    4.0789    2.5822 C.3     1  UNL1       -0.0629
     14 H          -1.1242    4.1289    2.7926 H       1  UNL1        0.0231
     15 H           0.4639    4.6004    3.3839 H       1  UNL1        0.0231
     16 H           0.1278    4.6228    1.6552 H       1  UNL1        0.0231
     17 O           0.3256    0.5366    1.2453 O.3     1  UNL1       -0.3918
     18 H           1.2891    0.5724    1.2942 H       1  UNL1        0.2098
@<TRIPOS>BOND
     1     9     8    1
     2     6     5    1
     3     7     5    1
     4     5     8    1
     5     5     1    1
     6    17     8    1
     7    17    18    1
     8     8    10    1
     9    16    13    1
    10     4     1    1
    11    11    10    1
    12    10    13    1
    13    10    12    1
    14     1     3    1
    15     1     2    1
    16    13    14    1
    17    13    15    1
