@<TRIPOS>MOLECULE
/home/jramos/PycharmProjects/GeCos/examples/06-PVA_trueno_openbabel_mp2/06-PVA_g16_conformers/06-PVA_003_gaussian.xyz
 18 17 0 0 0
SMALL
GASTEIGER

@<TRIPOS>ATOM
      1 C          -2.3373    1.1094    0.4785 C.3     1  UNL11      -0.0629
      2 H          -2.0204    0.0704    0.4339 H       1  UNL11       0.0231
      3 H          -2.3163    1.5148   -0.5337 H       1  UNL11       0.0231
      4 H          -3.3672    1.1437    0.8317 H       1  UNL11       0.0231
      5 C          -1.4148    1.9012    1.3974 C.3     1  UNL11      -0.0297
      6 H          -1.7358    2.9448    1.4503 H       1  UNL11       0.0287
      7 H          -1.4659    1.4951    2.4087 H       1  UNL11       0.0287
      8 C           0.0336    1.8667    0.9378 C.3     1  UNL11       0.0548
      9 H           0.0680    2.2012   -0.1094 H       1  UNL11       0.0593
     10 C           0.9642    2.7640    1.7536 C.3     1  UNL11      -0.0297
     11 H           0.6565    3.8040    1.6154 H       1  UNL11       0.0287
     12 H           1.9686    2.6855    1.3250 H       1  UNL11       0.0287
     13 C           1.0173    2.4150    3.2365 C.3     1  UNL11      -0.0629
     14 H           1.2237    1.3543    3.3640 H       1  UNL11       0.0231
     15 H           1.7993    2.9821    3.7399 H       1  UNL11       0.0231
     16 H           0.0751    2.6391    3.7334 H       1  UNL11       0.0231
     17 O           0.4420    0.4947    1.0167 O.3     1  UNL11      -0.3918
     18 H           1.3282    0.4382    0.6379 H       1  UNL11       0.2098
@<TRIPOS>BOND
     1     3     1    1
     2     2     1    1
     3     4     1    1
     4     1     5    1
     5     9     8    1
     6     5     8    1
     7     5     6    1
     8     5     7    1
     9    18    17    1
    10    17     8    1
    11     8    10    1
    12    12    10    1
    13    11    10    1
    14    10    13    1
    15    13    14    1
    16    13    16    1
    17    13    15    1
