@<TRIPOS>MOLECULE
/home/jramos/PycharmProjects/GeCos/examples/06-PVA_trueno_openbabel_mp2/06-PVA_g16_conformers/06-PVA_002_gaussian.xyz
 18 17 0 0 0
SMALL
GASTEIGER

@<TRIPOS>ATOM
      1 C          -2.1527    1.5171    0.0916 C.3     1  UNL11      -0.0629
      2 H          -2.2097    0.4320    0.1001 H       1  UNL11       0.0231
      3 H          -1.6970    1.8251   -0.8501 H       1  UNL11       0.0231
      4 H          -3.1645    1.9199    0.1218 H       1  UNL11       0.0231
      5 C          -1.3314    2.0161    1.2745 C.3     1  UNL11      -0.0297
      6 H          -1.3103    3.1073    1.2768 H       1  UNL11       0.0287
      7 H          -1.7932    1.6993    2.2133 H       1  UNL11       0.0287
      8 C           0.0961    1.4961    1.2601 C.3     1  UNL11       0.0548
      9 H           0.5803    1.8300    0.3293 H       1  UNL11       0.0593
     10 C           0.9330    1.9738    2.4438 C.3     1  UNL11      -0.0297
     11 H           1.9008    1.4640    2.3996 H       1  UNL11       0.0287
     12 H           0.4446    1.6358    3.3604 H       1  UNL11       0.0287
     13 C           1.1667    3.4805    2.4814 C.3     1  UNL11      -0.0629
     14 H           0.2412    4.0255    2.6572 H       1  UNL11       0.0231
     15 H           1.8612    3.7440    3.2778 H       1  UNL11       0.0231
     16 H           1.5902    3.8324    1.5400 H       1  UNL11       0.0231
     17 O          -0.0066    0.0675    1.2692 O.3     1  UNL11      -0.3918
     18 H           0.8913   -0.2836    1.2232 H       1  UNL11       0.2098
@<TRIPOS>BOND
     1     3     1    1
     2     4     1    1
     3     2     1    1
     4     1     5    1
     5     9     8    1
     6     5     6    1
     7     5     8    1
     8     5     7    1
     9    17     8    1
    10    17    18    1
    11     8    10    1
    12    16    13    1
    13    10    11    1
    14    10    13    1
    15    10    12    1
    16    13    14    1
    17    13    15    1
