@<TRIPOS>MOLECULE
/home/jramos/PycharmProjects/GeCos/examples/06-PVA_trueno_openbabel_mp2/06-PVA_g16_conformers/06-PVA_000_gaussian.xyz
 18 17 0 0 0
SMALL
GASTEIGER

@<TRIPOS>ATOM
      1 C          -2.1953    1.1451   -0.0065 C.3     1  UNL1       -0.0629
      2 H          -1.8314    0.1227   -0.0695 H       1  UNL1        0.0231
      3 H          -1.8806    1.6742   -0.9067 H       1  UNL1        0.0231
      4 H          -3.2844    1.1267    0.0072 H       1  UNL1        0.0231
      5 C          -1.6422    1.8245    1.2397 C.3     1  UNL1       -0.0297
      6 H          -2.0134    2.8498    1.3102 H       1  UNL1        0.0287
      7 H          -1.9800    1.2979    2.1355 H       1  UNL1        0.0287
      8 C          -0.1234    1.8600    1.2706 C.3     1  UNL1        0.0548
      9 H           0.2366    2.3567    0.3567 H       1  UNL1        0.0593
     10 C           0.4173    2.6139    2.4813 C.3     1  UNL1       -0.0297
     11 H           0.0011    2.1543    3.3805 H       1  UNL1        0.0287
     12 H           0.0486    3.6421    2.4422 H       1  UNL1        0.0287
     13 C           1.9398    2.6142    2.5573 C.3     1  UNL1       -0.0629
     14 H           2.3771    3.0356    1.6507 H       1  UNL1        0.0231
     15 H           2.2932    3.2042    3.4013 H       1  UNL1        0.0231
     16 H           2.3219    1.6019    2.6850 H       1  UNL1        0.0231
     17 O           0.3089    0.4934    1.2782 O.3     1  UNL1       -0.3918
     18 H           1.2499    0.4853    1.0681 H       1  UNL1        0.2098
@<TRIPOS>BOND
     1     3     1    1
     2     2     1    1
     3     1     4    1
     4     1     5    1
     5     9     8    1
     6    18    17    1
     7     5     8    1
     8     5     6    1
     9     5     7    1
    10     8    17    1
    11     8    10    1
    12    14    13    1
    13    12    10    1
    14    10    13    1
    15    10    11    1
    16    13    16    1
    17    13    15    1
