@<TRIPOS>MOLECULE
/home/jramos/PycharmProjects/GeCos/examples/06-PVA_trueno_openbabel_mp2/06-PVA_g16_conformers/06-PVA_003_gaussian.xyz
 18 17 0 0 0
SMALL
GASTEIGER

@<TRIPOS>ATOM
      1 C          -2.1709    1.1605   -0.0870 C.3     1  UNL1       -0.0629
      2 H          -1.7836    0.1506   -0.1968 H       1  UNL1        0.0231
      3 H          -1.8330    1.7488   -0.9409 H       1  UNL1        0.0231
      4 H          -3.2591    1.1205   -0.1175 H       1  UNL1        0.0231
      5 C          -1.6801    1.7725    1.2195 C.3     1  UNL1       -0.0297
      6 H          -2.0745    2.7853    1.3363 H       1  UNL1        0.0287
      7 H          -2.0459    1.1835    2.0618 H       1  UNL1        0.0287
      8 C          -0.1636    1.8353    1.2989 C.3     1  UNL1        0.0548
      9 H           0.2041    2.3606    0.4053 H       1  UNL1        0.0593
     10 C           0.3626    2.5703    2.5317 C.3     1  UNL1       -0.0297
     11 H           0.0465    3.6155    2.4766 H       1  UNL1        0.0287
     12 H           1.4560    2.5808    2.4761 H       1  UNL1        0.0287
     13 C          -0.0717    1.9496    3.8545 C.3     1  UNL1       -0.0629
     14 H           0.1546    0.8853    3.8605 H       1  UNL1        0.0231
     15 H           0.4465    2.4178    4.6904 H       1  UNL1        0.0231
     16 H          -1.1409    2.0697    4.0198 H       1  UNL1        0.0231
     17 O           0.2912    0.4758    1.2772 O.3     1  UNL1       -0.3918
     18 H           1.2552    0.4978    1.2298 H       1  UNL1        0.2098
@<TRIPOS>BOND
     1     3     1    1
     2     2     1    1
     3     4     1    1
     4     1     5    1
     5     9     8    1
     6     5     8    1
     7     5     6    1
     8     5     7    1
     9    18    17    1
    10    17     8    1
    11     8    10    1
    12    12    10    1
    13    11    10    1
    14    10    13    1
    15    13    14    1
    16    13    16    1
    17    13    15    1
