@<TRIPOS>MOLECULE
/home/jramos/PycharmProjects/GeCos/examples/06-PVA_trueno_openbabel_mp2/06-PVA_g16_conformers/06-PVA_002_gaussian.xyz
 18 17 0 0 0
SMALL
GASTEIGER

@<TRIPOS>ATOM
      1 C          -2.1726    1.0605   -0.0345 C.3     1  UNL1       -0.0629
      2 H          -1.7958    0.0413   -0.0352 H       1  UNL1        0.0231
      3 H          -1.8248    1.5510   -0.9443 H       1  UNL1        0.0231
      4 H          -3.2612    1.0301   -0.0655 H       1  UNL1        0.0231
      5 C          -1.6828    1.8081    1.2000 C.3     1  UNL1       -0.0297
      6 H          -2.0955    2.8184    1.2093 H       1  UNL1        0.0287
      7 H          -2.0326    1.3072    2.1064 H       1  UNL1        0.0287
      8 C          -0.1676    1.8946    1.2721 C.3     1  UNL1        0.0548
      9 H           0.1955    2.4198    0.3751 H       1  UNL1        0.0593
     10 C           0.3449    2.6287    2.5083 C.3     1  UNL1       -0.0297
     11 H           1.4363    2.5439    2.5219 H       1  UNL1        0.0287
     12 H          -0.0197    2.0984    3.3908 H       1  UNL1        0.0287
     13 C          -0.0394    4.1034    2.5682 C.3     1  UNL1       -0.0629
     14 H          -1.1132    4.2334    2.6887 H       1  UNL1        0.0231
     15 H           0.4489    4.5961    3.4078 H       1  UNL1        0.0231
     16 H           0.2616    4.6216    1.6570 H       1  UNL1        0.0231
     17 O           0.3032    0.5419    1.2673 O.3     1  UNL1       -0.3918
     18 H           1.2678    0.5753    1.2757 H       1  UNL1        0.2098
@<TRIPOS>BOND
     1     3     1    1
     2     4     1    1
     3     2     1    1
     4     1     5    1
     5     9     8    1
     6     5     6    1
     7     5     8    1
     8     5     7    1
     9    17     8    1
    10    17    18    1
    11     8    10    1
    12    16    13    1
    13    10    11    1
    14    10    13    1
    15    10    12    1
    16    13    14    1
    17    13    15    1
