@<TRIPOS>MOLECULE
/home/jramos/PycharmProjects/GeCos/examples/06-PVA_trueno_openbabel_mp2/06-PVA_g16_conformers/06-PVA_004_gaussian.xyz
 18 17 0 0 0
SMALL
GASTEIGER

@<TRIPOS>ATOM
      1 C          -2.2774    1.1173    2.4850 C.3     1  UNL1       -0.0629
      2 H          -2.0930    1.6347    3.4252 H       1  UNL1        0.0231
      3 H          -1.8740    0.1104    2.5634 H       1  UNL1        0.0231
      4 H          -3.3568    1.0458    2.3560 H       1  UNL1        0.0231
      5 C          -1.6477    1.8479    1.3035 C.3     1  UNL1       -0.0297
      6 H          -1.9558    1.3655    0.3742 H       1  UNL1        0.0287
      7 H          -2.0034    2.8804    1.2610 H       1  UNL1        0.0287
      8 C          -0.1243    1.8650    1.3217 C.3     1  UNL1        0.0548
      9 H           0.2190    2.3787    0.4116 H       1  UNL1        0.0593
     10 C           0.4693    2.5917    2.5252 C.3     1  UNL1       -0.0297
     11 H           0.1372    2.0942    3.4371 H       1  UNL1        0.0287
     12 H           0.0696    3.6091    2.5454 H       1  UNL1        0.0287
     13 C           1.9934    2.6402    2.4981 C.3     1  UNL1       -0.0629
     14 H           2.3552    3.0996    1.5769 H       1  UNL1        0.0231
     15 H           2.3848    3.2175    3.3341 H       1  UNL1        0.0231
     16 H           2.4184    1.6392    2.5717 H       1  UNL1        0.0231
     17 O           0.2913    0.4940    1.2833 O.3     1  UNL1       -0.3918
     18 H           1.2420    0.4842    1.1228 H       1  UNL1        0.2098
@<TRIPOS>BOND
     1     6     5    1
     2     9     8    1
     3    18    17    1
     4     7     5    1
     5    17     8    1
     6     5     8    1
     7     5     1    1
     8     8    10    1
     9    14    13    1
    10     4     1    1
    11     1     3    1
    12     1     2    1
    13    13    10    1
    14    13    16    1
    15    13    15    1
    16    10    12    1
    17    10    11    1
