@<TRIPOS>MOLECULE
/home/jramos/PycharmProjects/GeCos/examples/06-PVA_trueno_openbabel_mp2/06-PVA_g16_conformers/06-PVA_005_gaussian.xyz
 18 17 0 0 0
SMALL
GASTEIGER

@<TRIPOS>ATOM
      1 C          -2.1999    1.7995    1.1853 C.3     1  UNL11      -0.0629
      2 H          -2.1995    2.3730    2.1116 H       1  UNL11       0.0231
      3 H          -2.3373    0.7494    1.4334 H       1  UNL11       0.0231
      4 H          -3.0557    2.1278    0.5967 H       1  UNL11       0.0231
      5 C          -0.9061    1.9902    0.4015 C.3     1  UNL11      -0.0297
      6 H          -0.9932    1.5024   -0.5709 H       1  UNL11       0.0287
      7 H          -0.7295    3.0499    0.2068 H       1  UNL11       0.0287
      8 C           0.3213    1.4005    1.0840 C.3     1  UNL11       0.0548
      9 H           1.1983    1.6310    0.4614 H       1  UNL11       0.0593
     10 C           0.5833    1.9341    2.4896 C.3     1  UNL11      -0.0297
     11 H           1.4737    1.4300    2.8793 H       1  UNL11       0.0287
     12 H          -0.2450    1.6389    3.1352 H       1  UNL11       0.0287
     13 C           0.7976    3.4426    2.5453 C.3     1  UNL11      -0.0629
     14 H          -0.1110    3.9825    2.2833 H       1  UNL11       0.0231
     15 H           1.0931    3.7565    3.5454 H       1  UNL11       0.0231
     16 H           1.5821    3.7509    1.8534 H       1  UNL11       0.0231
     17 O           0.1090   -0.0159    1.1148 O.3     1  UNL11      -0.3918
     18 H           0.8623   -0.4071    1.5747 H       1  UNL11       0.2098
@<TRIPOS>BOND
     1     9     8    1
     2     6     5    1
     3     7     5    1
     4     5     8    1
     5     5     1    1
     6    17     8    1
     7    17    18    1
     8     8    10    1
     9    16    13    1
    10     4     1    1
    11    11    10    1
    12    10    13    1
    13    10    12    1
    14     1     3    1
    15     1     2    1
    16    13    14    1
    17    13    15    1
