@<TRIPOS>MOLECULE
/home/jramos/PycharmProjects/GeCos/examples/06-PVA_trueno_openbabel_mp2/06-PVA_g16_conformers/06-PVA_004_gaussian.xyz
 18 17 0 0 0
SMALL
GASTEIGER

@<TRIPOS>ATOM
      1 C          -2.3578    1.1936    1.1641 C.3     1  UNL11      -0.0629
      2 H          -2.5434    1.6680    2.1265 H       1  UNL11       0.0231
      3 H          -2.0474    0.1667    1.3427 H       1  UNL11       0.0231
      4 H          -3.3009    1.1774    0.6189 H       1  UNL11       0.0231
      5 C          -1.2929    1.9354    0.3630 C.3     1  UNL11      -0.0297
      6 H          -1.2242    1.5013   -0.6361 H       1  UNL11       0.0287
      7 H          -1.5729    2.9843    0.2373 H       1  UNL11       0.0287
      8 C           0.1002    1.8804    0.9776 C.3     1  UNL11       0.0548
      9 H           0.7888    2.4094    0.3024 H       1  UNL11       0.0593
     10 C           0.1930    2.5351    2.3529 C.3     1  UNL11      -0.0297
     11 H          -0.4856    2.0217    3.0350 H       1  UNL11       0.0287
     12 H          -0.1525    3.5688    2.2669 H       1  UNL11       0.0287
     13 C           1.6054    2.5130    2.9278 C.3     1  UNL11      -0.0629
     14 H           2.3139    2.9874    2.2469 H       1  UNL11       0.0231
     15 H           1.6528    3.0412    3.8787 H       1  UNL11       0.0231
     16 H           1.9378    1.4912    3.1108 H       1  UNL11       0.0231
     17 O           0.4572    0.4936    1.0351 O.3     1  UNL11      -0.3918
     18 H           1.3936    0.4449    1.2598 H       1  UNL11       0.2098
@<TRIPOS>BOND
     1     6     5    1
     2     9     8    1
     3    18    17    1
     4     7     5    1
     5    17     8    1
     6     5     8    1
     7     5     1    1
     8     8    10    1
     9    14    13    1
    10     4     1    1
    11     1     3    1
    12     1     2    1
    13    13    10    1
    14    13    16    1
    15    13    15    1
    16    10    12    1
    17    10    11    1
