@<TRIPOS>MOLECULE
/home/jramos/PycharmProjects/GeCos/examples/07-EVA_trueno_openbabel_mp2/07-EVA_g16_conformers/07-EVA_010_gaussian.xyz
 23 22 0 0 0
SMALL
GASTEIGER

@<TRIPOS>ATOM
      1 C          -2.2930    2.4331    2.9673 C.3     1  UNL11      -0.0619
      2 H          -2.8932    2.8374    2.1516 H       1  UNL11       0.0231
      3 H          -1.6412    3.2265    3.3296 H       1  UNL11       0.0231
      4 H          -2.9691    2.1640    3.7773 H       1  UNL11       0.0231
      5 C          -1.4961    1.2167    2.5076 C.3     1  UNL11      -0.0185
      6 H          -0.8542    0.8558    3.3126 H       1  UNL11       0.0298
      7 H          -2.1751    0.3987    2.2606 H       1  UNL11       0.0298
      8 C          -0.6475    1.4962    1.2783 C.3     1  UNL11       0.1026
      9 H          -1.2885    1.7350    0.4269 H       1  UNL11       0.0733
     10 C           0.3947    2.5970    1.4353 C.3     1  UNL11      -0.0185
     11 H          -0.1266    3.5477    1.5672 H       1  UNL11       0.0298
     12 H           0.9319    2.6721    0.4891 H       1  UNL11       0.0298
     13 C           1.3725    2.3656    2.5816 C.3     1  UNL11      -0.0619
     14 H           1.8454    1.3893    2.4891 H       1  UNL11       0.0231
     15 H           2.1546    3.1235    2.5761 H       1  UNL11       0.0231
     16 H           0.8770    2.4102    3.5507 H       1  UNL11       0.0231
     17 O           0.0256    0.2368    0.9865 O.3     1  UNL11      -0.4616
     18 C           0.3617    0.0302   -0.3141 C.2     1  UNL11       0.3042
     19 O           0.1334    0.8177   -1.2171 O.2     1  UNL11      -0.2512
     20 C           1.0504   -1.2995   -0.4666 C.3     1  UNL11       0.0332
     21 H           1.9677   -1.3043    0.1190 H       1  UNL11       0.0342
     22 H           0.4098   -2.0923   -0.0866 H       1  UNL11       0.0342
     23 H           1.2771   -1.4684   -1.5140 H       1  UNL11       0.0342
@<TRIPOS>BOND
     1     7     5    1
     2     2     1    1
     3     9     8    1
     4    22    20    1
     5    19    18    2
     6    23    20    1
     7     4     1    1
     8    18    20    1
     9    18    17    1
    10     1     5    1
    11     1     3    1
    12    20    21    1
    13     5     8    1
    14     5     6    1
    15     8    17    1
    16     8    10    1
    17    11    10    1
    18    10    12    1
    19    10    13    1
    20    13    14    1
    21    13    16    1
    22    13    15    1
