@<TRIPOS>MOLECULE
/home/jramos/PycharmProjects/GeCos/examples/07-EVA_trueno_openbabel_mp2/07-EVA_g16_conformers/07-EVA_003_gaussian.xyz
 23 22 0 0 0
SMALL
GASTEIGER

@<TRIPOS>ATOM
      1 C          -2.1821    3.7338    1.2832 C.3     1  UNL1       -0.0619
      2 H          -1.6823    4.1818    0.4238 H       1  UNL1        0.0231
      3 H          -1.7933    4.2068    2.1839 H       1  UNL1        0.0231
      4 H          -3.2418    3.9743    1.2136 H       1  UNL1        0.0231
      5 C          -1.9757    2.2225    1.3044 C.3     1  UNL1       -0.0185
      6 H          -2.4260    1.7876    2.1981 H       1  UNL1        0.0298
      7 H          -2.4701    1.7734    0.4426 H       1  UNL1        0.0298
      8 C          -0.5080    1.8231    1.2455 C.3     1  UNL1        0.1026
      9 H          -0.0916    2.1363    0.2858 H       1  UNL1        0.0733
     10 C           0.3615    2.3434    2.3804 C.3     1  UNL1       -0.0185
     11 H           0.4325    3.4291    2.2879 H       1  UNL1        0.0298
     12 H           1.3687    1.9521    2.2253 H       1  UNL1        0.0298
     13 C          -0.1305    1.9612    3.7718 C.3     1  UNL1       -0.0619
     14 H          -0.2487    0.8822    3.8507 H       1  UNL1        0.0231
     15 H           0.5819    2.2820    4.5306 H       1  UNL1        0.0231
     16 H          -1.0883    2.4263    4.0014 H       1  UNL1        0.0231
     17 O          -0.4147    0.3701    1.3150 O.3     1  UNL1       -0.4616
     18 C          -0.5863   -0.2934    0.1419 C.2     1  UNL1        0.3042
     19 O          -0.8050    0.2479   -0.9291 O.2     1  UNL1       -0.2512
     20 C          -0.4668   -1.7774    0.3637 C.3     1  UNL1        0.0332
     21 H           0.4999   -2.0071    0.8067 H       1  UNL1        0.0342
     22 H          -1.2372   -2.1055    1.0587 H       1  UNL1        0.0342
     23 H          -0.5772   -2.2921   -0.5849 H       1  UNL1        0.0342
@<TRIPOS>BOND
     1    19    18    2
     2    23    20    1
     3    18    20    1
     4    18    17    1
     5     9     8    1
     6    20    21    1
     7    20    22    1
     8     2     1    1
     9     7     5    1
    10     4     1    1
    11     8     5    1
    12     8    17    1
    13     8    10    1
    14     1     5    1
    15     1     3    1
    16     5     6    1
    17    12    10    1
    18    11    10    1
    19    10    13    1
    20    13    14    1
    21    13    16    1
    22    13    15    1
