@<TRIPOS>MOLECULE
/home/jramos/PycharmProjects/GeCos/examples/07-EVA_trueno_openbabel_mp2/07-EVA_g16_conformers/07-EVA_007_gaussian.xyz
 23 22 0 0 0
SMALL
GASTEIGER

@<TRIPOS>ATOM
      1 C          -2.6448    1.2721    2.1526 C.3     1  UNL11      -0.0619
      2 H          -2.6083    0.2177    1.8891 H       1  UNL11       0.0231
      3 H          -3.0083    1.8264    1.2868 H       1  UNL11       0.0231
      4 H          -3.3654    1.3992    2.9593 H       1  UNL11       0.0231
      5 C          -1.2658    1.7695    2.5699 C.3     1  UNL11      -0.0185
      6 H          -1.3283    2.8158    2.8738 H       1  UNL11       0.0298
      7 H          -0.9048    1.2063    3.4342 H       1  UNL11       0.0298
      8 C          -0.2369    1.6594    1.4590 C.3     1  UNL11       0.1026
      9 H          -0.5749    2.2013    0.5721 H       1  UNL11       0.0733
     10 C           1.1620    2.1255    1.8370 C.3     1  UNL11      -0.0185
     11 H           1.8215    1.8991    0.9986 H       1  UNL11       0.0298
     12 H           1.5025    1.5349    2.6907 H       1  UNL11       0.0298
     13 C           1.2399    3.6164    2.1526 C.3     1  UNL11      -0.0619
     14 H           0.6824    3.8712    3.0523 H       1  UNL11       0.0231
     15 H           2.2742    3.9189    2.3085 H       1  UNL11       0.0231
     16 H           0.8413    4.2075    1.3277 H       1  UNL11       0.0231
     17 O          -0.1779    0.2442    1.1189 O.3     1  UNL11      -0.4616
     18 C           0.1816   -0.0465   -0.1589 C.2     1  UNL11       0.3042
     19 O           0.4518    0.7902   -1.0043 O.2     1  UNL11      -0.2512
     20 C           0.1918   -1.5370   -0.3681 C.3     1  UNL11       0.0332
     21 H           0.8863   -1.9999    0.3300 H       1  UNL11       0.0342
     22 H          -0.7983   -1.9422   -0.1694 H       1  UNL11       0.0342
     23 H           0.4866   -1.7543   -1.3891 H       1  UNL11       0.0342
@<TRIPOS>BOND
     1     3     1    1
     2     4     1    1
     3     1     2    1
     4     1     5    1
     5     9     8    1
     6     6     5    1
     7    16    13    1
     8     5     8    1
     9     5     7    1
    10    19    18    2
    11     8    17    1
    12     8    10    1
    13    18    17    1
    14    18    20    1
    15    22    20    1
    16    14    13    1
    17    13    10    1
    18    13    15    1
    19    23    20    1
    20    20    21    1
    21    10    11    1
    22    10    12    1
