@<TRIPOS>MOLECULE
/home/jramos/PycharmProjects/GeCos/examples/07-EVA_trueno_openbabel_mp2/07-EVA_g16_conformers/07-EVA_007_gaussian.xyz
 23 22 0 0 0
SMALL
GASTEIGER

@<TRIPOS>ATOM
      1 C          -1.8385    0.7720    0.2952 C.3     1  UNL1       -0.0619
      2 H          -1.4623   -0.1862    0.6458 H       1  UNL1        0.0231
      3 H          -1.3296    1.0160   -0.6378 H       1  UNL1        0.0231
      4 H          -2.9008    0.6654    0.0802 H       1  UNL1        0.0231
      5 C          -1.5995    1.8572    1.3384 C.3     1  UNL1       -0.0185
      6 H          -2.0222    2.8014    0.9909 H       1  UNL1        0.0298
      7 H          -2.1071    1.6039    2.2725 H       1  UNL1        0.0298
      8 C          -0.1269    2.0778    1.6346 C.3     1  UNL1        0.1026
      9 H           0.4140    2.3194    0.7162 H       1  UNL1        0.0733
     10 C           0.1597    3.1392    2.6875 C.3     1  UNL1       -0.0185
     11 H           1.2324    3.1270    2.8828 H       1  UNL1        0.0298
     12 H          -0.3453    2.8514    3.6125 H       1  UNL1        0.0298
     13 C          -0.2605    4.5434    2.2630 C.3     1  UNL1       -0.0619
     14 H          -1.3410    4.6317    2.1632 H       1  UNL1        0.0231
     15 H           0.0638    5.2767    2.9997 H       1  UNL1        0.0231
     16 H           0.1915    4.8099    1.3073 H       1  UNL1        0.0231
     17 O           0.3710    0.7976    2.1195 O.3     1  UNL1       -0.4616
     18 C           1.6891    0.5500    1.9006 C.2     1  UNL1        0.3042
     19 O           2.4500    1.3219    1.3412 O.2     1  UNL1       -0.2512
     20 C           2.0591   -0.8041    2.4436 C.3     1  UNL1        0.0332
     21 H           1.8437   -0.8426    3.5094 H       1  UNL1        0.0342
     22 H           1.4607   -1.5711    1.9560 H       1  UNL1        0.0342
     23 H           3.1141   -0.9854    2.2681 H       1  UNL1        0.0342
@<TRIPOS>BOND
     1     3     1    1
     2     4     1    1
     3     1     2    1
     4     1     5    1
     5     9     8    1
     6     6     5    1
     7    16    13    1
     8     5     8    1
     9     5     7    1
    10    19    18    2
    11     8    17    1
    12     8    10    1
    13    18    17    1
    14    18    20    1
    15    22    20    1
    16    14    13    1
    17    13    10    1
    18    13    15    1
    19    23    20    1
    20    20    21    1
    21    10    11    1
    22    10    12    1
