@<TRIPOS>MOLECULE
/home/jramos/PycharmProjects/GeCos/examples/07-EVA_trueno_openbabel_mp2/07-EVA_g16_conformers/07-EVA_001_gaussian.xyz
 23 22 0 0 0
SMALL
GASTEIGER

@<TRIPOS>ATOM
      1 C          -1.8864    0.8613    0.0613 C.3     1  UNL1       -0.0619
      2 H          -1.3971   -0.1088    0.1190 H       1  UNL1        0.0231
      3 H          -1.5318    1.3679   -0.8367 H       1  UNL1        0.0231
      4 H          -2.9577    0.6976   -0.0457 H       1  UNL1        0.0231
      5 C          -1.5794    1.6866    1.3051 C.3     1  UNL1       -0.0185
      6 H          -2.0884    2.6525    1.2520 H       1  UNL1        0.0298
      7 H          -1.9554    1.1755    2.1925 H       1  UNL1        0.0298
      8 C          -0.0950    1.9559    1.4764 C.3     1  UNL1        0.1026
      9 H           0.3177    2.3734    0.5553 H       1  UNL1        0.0733
     10 C           0.2635    2.8737    2.6391 C.3     1  UNL1       -0.0185
     11 H          -0.1813    3.8523    2.4395 H       1  UNL1        0.0298
     12 H           1.3449    3.0146    2.6250 H       1  UNL1        0.0298
     13 C          -0.1827    2.3598    4.0034 C.3     1  UNL1       -0.0619
     14 H           0.1982    1.3548    4.1766 H       1  UNL1        0.0231
     15 H           0.1929    3.0060    4.7956 H       1  UNL1        0.0231
     16 H          -1.2678    2.3299    4.0889 H       1  UNL1        0.0231
     17 O           0.5211    0.6506    1.6800 O.3     1  UNL1       -0.4616
     18 C           1.8175    0.5362    1.2870 C.2     1  UNL1        0.3042
     19 O           2.4688    1.4418    0.7942 O.2     1  UNL1       -0.2512
     20 C           2.3168   -0.8594    1.5491 C.3     1  UNL1        0.0332
     21 H           2.2453   -1.0798    2.6123 H       1  UNL1        0.0342
     22 H           1.6956   -1.5780    1.0185 H       1  UNL1        0.0342
     23 H           3.3474   -0.9397    1.2199 H       1  UNL1        0.0342
@<TRIPOS>BOND
     1     3     1    1
     2     4     1    1
     3     1     2    1
     4     1     5    1
     5     9     8    1
     6    19    18    2
     7    22    20    1
     8    23    20    1
     9     6     5    1
    10    18    20    1
    11    18    17    1
    12     5     8    1
    13     5     7    1
    14     8    17    1
    15     8    10    1
    16    20    21    1
    17    11    10    1
    18    12    10    1
    19    10    13    1
    20    13    16    1
    21    13    14    1
    22    13    15    1
