@<TRIPOS>MOLECULE
/home/jramos/PycharmProjects/GeCos/examples/07-EVA_trueno_openbabel_mp2/07-EVA_g16_conformers/07-EVA_022_gaussian.xyz
 23 22 0 0 0
SMALL
GASTEIGER

@<TRIPOS>ATOM
      1 C          -1.8702    1.3400    3.1921 C.3     1  UNL11      -0.0619
      2 H          -1.1394    1.6600    3.9336 H       1  UNL11       0.0231
      3 H          -1.7716    0.2644    3.0591 H       1  UNL11       0.0231
      4 H          -2.8608    1.5437    3.5966 H       1  UNL11       0.0231
      5 C          -1.6765    2.0615    1.8631 C.3     1  UNL11      -0.0185
      6 H          -2.4875    1.8008    1.1806 H       1  UNL11       0.0298
      7 H          -1.7275    3.1427    2.0073 H       1  UNL11       0.0298
      8 C          -0.3678    1.7345    1.1598 C.3     1  UNL11       0.1026
      9 H          -0.3038    2.2869    0.2198 H       1  UNL11       0.0733
     10 C           0.8960    1.9856    1.9704 C.3     1  UNL11      -0.0185
     11 H           1.7442    1.6989    1.3483 H       1  UNL11       0.0298
     12 H           0.8961    1.3267    2.8402 H       1  UNL11       0.0298
     13 C           1.0463    3.4410    2.4023 C.3     1  UNL11      -0.0619
     14 H           0.2732    3.7333    3.1114 H       1  UNL11       0.0231
     15 H           2.0116    3.6004    2.8801 H       1  UNL11       0.0231
     16 H           0.9863    4.1091    1.5427 H       1  UNL11       0.0231
     17 O          -0.4414    0.3156    0.8346 O.3     1  UNL11      -0.4616
     18 C           0.2698   -0.0829   -0.2522 C.2     1  UNL11       0.3042
     19 O           0.9418    0.6622   -0.9457 O.2     1  UNL11      -0.2512
     20 C           0.1038   -1.5637   -0.4658 C.3     1  UNL11       0.0332
     21 H           0.4757   -2.1016    0.4040 H       1  UNL11       0.0342
     22 H          -0.9514   -1.8036   -0.5785 H       1  UNL11       0.0342
     23 H           0.6537   -1.8625   -1.3518 H       1  UNL11       0.0342
@<TRIPOS>BOND
     1     6     5    1
     2     7     5    1
     3     9     8    1
     4     5     8    1
     5     5     1    1
     6    16    13    1
     7     8    17    1
     8     8    10    1
     9     4     1    1
    10    19    18    2
    11    14    13    1
    12    13    10    1
    13    13    15    1
    14     1     2    1
    15     1     3    1
    16    17    18    1
    17    18    20    1
    18    22    20    1
    19    10    11    1
    20    10    12    1
    21    23    20    1
    22    20    21    1
