@<TRIPOS>MOLECULE
/home/jramos/PycharmProjects/GeCos/examples/07-EVA_trueno_openbabel_mp2/07-EVA_g16_conformers/07-EVA_009_gaussian.xyz
 23 22 0 0 0
SMALL
GASTEIGER

@<TRIPOS>ATOM
      1 C          -1.8701    1.3398    3.1921 C.3     1  UNL11      -0.0619
      2 H          -1.1394    1.6598    3.9338 H       1  UNL11       0.0231
      3 H          -1.7712    0.2642    3.0591 H       1  UNL11       0.0231
      4 H          -2.8608    1.5431    3.5967 H       1  UNL11       0.0231
      5 C          -1.6764    2.0615    1.8633 C.3     1  UNL11      -0.0185
      6 H          -2.4876    1.8010    1.1808 H       1  UNL11       0.0298
      7 H          -1.7273    3.1427    2.0078 H       1  UNL11       0.0298
      8 C          -0.3678    1.7346    1.1597 C.3     1  UNL11       0.1026
      9 H          -0.3040    2.2872    0.2199 H       1  UNL11       0.0733
     10 C           0.8959    1.9856    1.9704 C.3     1  UNL11      -0.0185
     11 H           1.7442    1.6991    1.3482 H       1  UNL11       0.0298
     12 H           0.8961    1.3267    2.8400 H       1  UNL11       0.0298
     13 C           1.0463    3.4409    2.4023 C.3     1  UNL11      -0.0619
     14 H           0.2733    3.7331    3.1118 H       1  UNL11       0.0231
     15 H           2.0118    3.6004    2.8799 H       1  UNL11       0.0231
     16 H           0.9860    4.1092    1.5430 H       1  UNL11       0.0231
     17 O          -0.4416    0.3158    0.8343 O.3     1  UNL11      -0.4616
     18 C           0.2698   -0.0829   -0.2521 C.2     1  UNL11       0.3042
     19 O           0.9420    0.6621   -0.9457 O.2     1  UNL11      -0.2512
     20 C           0.1036   -1.5636   -0.4657 C.3     1  UNL11       0.0332
     21 H           0.4749   -2.1015    0.4044 H       1  UNL11       0.0342
     22 H          -0.9515   -1.8034   -0.5790 H       1  UNL11       0.0342
     23 H           0.6540   -1.8627   -1.3514 H       1  UNL11       0.0342
@<TRIPOS>BOND
     1     6     5    1
     2     9     8    1
     3    19    18    2
     4    22    20    1
     5    23    20    1
     6     7     5    1
     7    18    20    1
     8    18    17    1
     9     5     8    1
    10     5     1    1
    11    20    21    1
    12     8    17    1
    13     8    10    1
    14    16    13    1
    15     4     1    1
    16     1     3    1
    17     1     2    1
    18    11    10    1
    19    13    10    1
    20    13    14    1
    21    13    15    1
    22    10    12    1
