@<TRIPOS>MOLECULE
/home/jramos/PycharmProjects/GeCos/examples/07-EVA_trueno_openbabel_mp2/07-EVA_g16_conformers/07-EVA_017_gaussian.xyz
 23 22 0 0 0
SMALL
GASTEIGER

@<TRIPOS>ATOM
      1 C          -1.9760    1.0112   -0.0546 C.3     1  UNL1       -0.0619
      2 H          -1.5058    0.0311   -0.0881 H       1  UNL1        0.0231
      3 H          -1.6658    1.5671   -0.9399 H       1  UNL1        0.0231
      4 H          -3.0554    0.8754   -0.1046 H       1  UNL1        0.0231
      5 C          -1.5781    1.7550    1.2148 C.3     1  UNL1       -0.0185
      6 H          -2.0933    2.7162    1.2552 H       1  UNL1        0.0298
      7 H          -1.8858    1.1896    2.0980 H       1  UNL1        0.0298
      8 C          -0.0848    2.0136    1.3044 C.3     1  UNL1        0.1026
      9 H           0.2589    2.5668    0.4266 H       1  UNL1        0.0733
     10 C           0.3626    2.7358    2.5675 C.3     1  UNL1       -0.0185
     11 H           1.4526    2.7666    2.5598 H       1  UNL1        0.0298
     12 H           0.0575    2.1398    3.4308 H       1  UNL1        0.0298
     13 C          -0.1823    4.1568    2.6788 C.3     1  UNL1       -0.0619
     14 H          -1.2638    4.1690    2.8022 H       1  UNL1        0.0231
     15 H           0.2535    4.6654    3.5374 H       1  UNL1        0.0231
     16 H           0.0643    4.7363    1.7888 H       1  UNL1        0.0231
     17 O           0.5428    0.6995    1.2748 O.3     1  UNL1       -0.4616
     18 C           1.8015    0.6523    0.7647 C.2     1  UNL1        0.3042
     19 O           2.4117    1.6230    0.3488 O.2     1  UNL1       -0.2512
     20 C           2.3175   -0.7615    0.7889 C.3     1  UNL1        0.0332
     21 H           2.3143   -1.1350    1.8108 H       1  UNL1        0.0342
     22 H           1.6636   -1.4010    0.1994 H       1  UNL1        0.0342
     23 H           3.3243   -0.7832    0.3855 H       1  UNL1        0.0342
@<TRIPOS>BOND
     1     3     1    1
     2     4     1    1
     3     2     1    1
     4     1     5    1
     5    22    20    1
     6    19    18    2
     7    23    20    1
     8     9     8    1
     9    18    20    1
    10    18    17    1
    11    20    21    1
    12     5     6    1
    13     5     8    1
    14     5     7    1
    15    17     8    1
    16     8    10    1
    17    16    13    1
    18    11    10    1
    19    10    13    1
    20    10    12    1
    21    13    14    1
    22    13    15    1
