@<TRIPOS>MOLECULE
/home/jramos/PycharmProjects/GeCos/examples/07-EVA_trueno_openbabel_mp2/07-EVA_g16_conformers/07-EVA_021_gaussian.xyz
 23 22 0 0 0
SMALL
GASTEIGER

@<TRIPOS>ATOM
      1 C          -1.5697    0.7606    0.2133 C.3     1  UNL1       -0.0619
      2 H          -1.0138   -0.1545    0.4080 H       1  UNL1        0.0231
      3 H          -1.2267    1.1644   -0.7398 H       1  UNL1        0.0231
      4 H          -2.6212    0.4967    0.1095 H       1  UNL1        0.0231
      5 C          -1.3786    1.7729    1.3368 C.3     1  UNL1       -0.0185
      6 H          -2.0203    2.6377    1.1553 H       1  UNL1        0.0298
      7 H          -1.6740    1.3416    2.2917 H       1  UNL1        0.0298
      8 C           0.0508    2.2930    1.4333 C.3     1  UNL1        0.1026
      9 H           0.2784    2.8427    0.5155 H       1  UNL1        0.0733
     10 C           0.3270    3.2017    2.6253 C.3     1  UNL1       -0.0185
     11 H           1.3972    3.4194    2.6295 H       1  UNL1        0.0298
     12 H           0.0993    2.6632    3.5437 H       1  UNL1        0.0298
     13 C          -0.4606    4.5075    2.5624 C.3     1  UNL1       -0.0619
     14 H          -1.5306    4.3369    2.6671 H       1  UNL1        0.0231
     15 H          -0.1534    5.1757    3.3654 H       1  UNL1        0.0231
     16 H          -0.2911    5.0235    1.6164 H       1  UNL1        0.0231
     17 O           1.0356    1.2153    1.3670 O.3     1  UNL1       -0.4616
     18 C           1.0287    0.2659    2.3342 C.2     1  UNL1        0.3042
     19 O           0.2585    0.2298    3.2804 O.2     1  UNL1       -0.2512
     20 C           2.1140   -0.7436    2.0636 C.3     1  UNL1        0.0332
     21 H           2.1060   -1.4962    2.8449 H       1  UNL1        0.0342
     22 H           1.9494   -1.2080    1.0933 H       1  UNL1        0.0342
     23 H           3.0803   -0.2444    2.0326 H       1  UNL1        0.0342
@<TRIPOS>BOND
     1     3     1    1
     2     4     1    1
     3     1     2    1
     4     1     5    1
     5     9     8    1
     6    22    20    1
     7     6     5    1
     8     5     8    1
     9     5     7    1
    10    17     8    1
    11    17    18    1
    12     8    10    1
    13    16    13    1
    14    23    20    1
    15    20    18    1
    16    20    21    1
    17    18    19    2
    18    13    10    1
    19    13    14    1
    20    13    15    1
    21    10    11    1
    22    10    12    1
