@<TRIPOS>MOLECULE
/home/jramos/PycharmProjects/GeCos/examples/07-EVA_trueno_openbabel_mp2/07-EVA_g16_conformers/07-EVA_017_gaussian.xyz
 23 22 0 0 0
SMALL
GASTEIGER

@<TRIPOS>ATOM
      1 C          -2.6445    1.2718    2.1529 C.3     1  UNL11      -0.0619
      2 H          -2.6080    0.2170    1.8904 H       1  UNL11       0.0231
      3 H          -3.0080    1.8250    1.2864 H       1  UNL11       0.0231
      4 H          -3.3653    1.3996    2.9593 H       1  UNL11       0.0231
      5 C          -1.2657    1.7698    2.5698 C.3     1  UNL11      -0.0185
      6 H          -1.3284    2.8163    2.8733 H       1  UNL11       0.0298
      7 H          -0.9045    1.2071    3.4343 H       1  UNL11       0.0298
      8 C          -0.2369    1.6594    1.4589 C.3     1  UNL11       0.1026
      9 H          -0.5751    2.2013    0.5719 H       1  UNL11       0.0733
     10 C           1.1620    2.1256    1.8366 C.3     1  UNL11      -0.0185
     11 H           1.8214    1.8996    0.9980 H       1  UNL11       0.0298
     12 H           1.5027    1.5346    2.6901 H       1  UNL11       0.0298
     13 C           1.2397    3.6163    2.1530 C.3     1  UNL11      -0.0619
     14 H           0.6836    3.8703    3.0537 H       1  UNL11       0.0231
     15 H           2.2741    3.9193    2.3074 H       1  UNL11       0.0231
     16 H           0.8395    4.2078    1.3291 H       1  UNL11       0.0231
     17 O          -0.1780    0.2443    1.1188 O.3     1  UNL11      -0.4616
     18 C           0.1816   -0.0464   -0.1590 C.2     1  UNL11       0.3042
     19 O           0.4519    0.7901   -1.0045 O.2     1  UNL11      -0.2512
     20 C           0.1917   -1.5370   -0.3679 C.3     1  UNL11       0.0332
     21 H           0.8863   -1.9999    0.3301 H       1  UNL11       0.0342
     22 H          -0.7984   -1.9422   -0.1692 H       1  UNL11       0.0342
     23 H           0.4865   -1.7545   -1.3890 H       1  UNL11       0.0342
@<TRIPOS>BOND
     1     3     1    1
     2     4     1    1
     3     2     1    1
     4     1     5    1
     5    22    20    1
     6    19    18    2
     7    23    20    1
     8     9     8    1
     9    18    20    1
    10    18    17    1
    11    20    21    1
    12     5     6    1
    13     5     8    1
    14     5     7    1
    15    17     8    1
    16     8    10    1
    17    16    13    1
    18    11    10    1
    19    10    13    1
    20    10    12    1
    21    13    14    1
    22    13    15    1
