@<TRIPOS>MOLECULE
/home/jramos/PycharmProjects/GeCos/examples/07-EVA_trueno_openbabel_mp2/07-EVA_g16_conformers/07-EVA_006_gaussian.xyz
 23 22 0 0 0
SMALL
GASTEIGER

@<TRIPOS>ATOM
      1 C          -2.6315    2.2966    2.3493 C.3     1  UNL11      -0.0619
      2 H          -2.7210    3.0197    1.5382 H       1  UNL11       0.0231
      3 H          -2.2718    2.8212    3.2327 H       1  UNL11       0.0231
      4 H          -3.6294    1.9219    2.5717 H       1  UNL11       0.0231
      5 C          -1.7073    1.1493    1.9519 C.3     1  UNL11      -0.0185
      6 H          -1.5698    0.4607    2.7889 H       1  UNL11       0.0298
      7 H          -2.1612    0.5862    1.1359 H       1  UNL11       0.0298
      8 C          -0.3354    1.6126    1.4820 C.3     1  UNL11       0.1026
      9 H          -0.4483    2.2612    0.6096 H       1  UNL11       0.0733
     10 C           0.5030    2.2985    2.5457 C.3     1  UNL11      -0.0185
     11 H           0.6086    1.6195    3.3956 H       1  UNL11       0.0298
     12 H          -0.0459    3.1722    2.9011 H       1  UNL11       0.0298
     13 C           1.8745    2.7252    2.0359 C.3     1  UNL11      -0.0619
     14 H           1.7763    3.3983    1.1837 H       1  UNL11       0.0231
     15 H           2.4341    3.2456    2.8120 H       1  UNL11       0.0231
     16 H           2.4521    1.8597    1.7193 H       1  UNL11       0.0231
     17 O           0.4323    0.4450    1.0709 O.3     1  UNL11      -0.4616
     18 C           0.2259    0.0148   -0.2015 C.2     1  UNL11       0.3042
     19 O          -0.5467    0.5376   -0.9872 O.2     1  UNL11      -0.2512
     20 C           1.0870   -1.1859   -0.4884 C.3     1  UNL11       0.0332
     21 H           2.1355   -0.9247   -0.3604 H       1  UNL11       0.0342
     22 H           0.8541   -1.9807    0.2173 H       1  UNL11       0.0342
     23 H           0.9070   -1.5225   -1.5039 H       1  UNL11       0.0342
@<TRIPOS>BOND
     1    19    18    2
     2    23    20    1
     3     2     1    1
     4     9     8    1
     5    18    20    1
     6    18    17    1
     7     7     5    1
     8    20    21    1
     9    20    22    1
    10     4     1    1
    11     1     5    1
    12     1     3    1
    13    14    13    1
    14     8     5    1
    15     8    17    1
    16     8    10    1
    17     5     6    1
    18    12    10    1
    19    13    10    1
    20    13    16    1
    21    13    15    1
    22    10    11    1
