@<TRIPOS>MOLECULE
/home/jramos/PycharmProjects/GeCos/examples/07-EVA_trueno_openbabel_mp2/07-EVA_g16_conformers/07-EVA_010_gaussian.xyz
 23 22 0 0 0
SMALL
GASTEIGER

@<TRIPOS>ATOM
      1 C          -2.2673    3.1070    1.1449 C.3     1  UNL1       -0.0619
      2 H          -1.8516    3.7546    0.3724 H       1  UNL1        0.0231
      3 H          -2.2396    3.6497    2.0885 H       1  UNL1        0.0231
      4 H          -3.3120    2.9229    0.8992 H       1  UNL1        0.0231
      5 C          -1.4968    1.7935    1.2290 C.3     1  UNL1       -0.0185
      6 H          -1.8816    1.1780    2.0434 H       1  UNL1        0.0298
      7 H          -1.6385    1.2197    0.3115 H       1  UNL1        0.0298
      8 C          -0.0025    1.9959    1.4178 C.3     1  UNL1        0.1026
      9 H           0.4203    2.5003    0.5463 H       1  UNL1        0.0733
     10 C           0.4043    2.7570    2.6740 C.3     1  UNL1       -0.0185
     11 H           0.0497    3.7860    2.5824 H       1  UNL1        0.0298
     12 H           1.4936    2.8091    2.6829 H       1  UNL1        0.0298
     13 C          -0.1060    2.1341    3.9683 C.3     1  UNL1       -0.0619
     14 H           0.1897    1.0882    4.0314 H       1  UNL1        0.0231
     15 H           0.3047    2.6556    4.8317 H       1  UNL1        0.0231
     16 H          -1.1919    2.1827    4.0396 H       1  UNL1        0.0231
     17 O           0.5599    0.6522    1.4681 O.3     1  UNL1       -0.4616
     18 C           1.8501    0.5325    1.0581 C.2     1  UNL1        0.3042
     19 O           2.5350    1.4607    0.6618 O.2     1  UNL1       -0.2512
     20 C           2.2981   -0.9003    1.1681 C.3     1  UNL1        0.0332
     21 H           2.2482   -1.2191    2.2075 H       1  UNL1        0.0342
     22 H           1.6328   -1.5400    0.5924 H       1  UNL1        0.0342
     23 H           3.3152   -0.9877    0.8009 H       1  UNL1        0.0342
@<TRIPOS>BOND
     1     7     5    1
     2     2     1    1
     3     9     8    1
     4    22    20    1
     5    19    18    2
     6    23    20    1
     7     4     1    1
     8    18    20    1
     9    18    17    1
    10     1     5    1
    11     1     3    1
    12    20    21    1
    13     5     8    1
    14     5     6    1
    15     8    17    1
    16     8    10    1
    17    11    10    1
    18    10    12    1
    19    10    13    1
    20    13    14    1
    21    13    16    1
    22    13    15    1
