@<TRIPOS>MOLECULE
/home/jramos/PycharmProjects/GeCos/examples/07-EVA_trueno_openbabel_mp2/07-EVA_g16_conformers/07-EVA_006_gaussian.xyz
 23 22 0 0 0
SMALL
GASTEIGER

@<TRIPOS>ATOM
      1 C          -2.2521    3.8116    1.1604 C.3     1  UNL1       -0.0619
      2 H          -1.8284    4.0762    0.1913 H       1  UNL1        0.0231
      3 H          -1.8087    4.4614    1.9129 H       1  UNL1        0.0231
      4 H          -3.3190    4.0267    1.1262 H       1  UNL1        0.0231
      5 C          -2.0152    2.3364    1.4701 C.3     1  UNL1       -0.0185
      6 H          -2.3846    2.0904    2.4684 H       1  UNL1        0.0298
      7 H          -2.5680    1.7245    0.7566 H       1  UNL1        0.0298
      8 C          -0.5510    1.9283    1.3867 C.3     1  UNL1        0.1026
      9 H          -0.1766    2.1167    0.3773 H       1  UNL1        0.0733
     10 C           0.3516    2.5841    2.4163 C.3     1  UNL1       -0.0185
     11 H          -0.0415    2.3647    3.4122 H       1  UNL1        0.0298
     12 H           0.2934    3.6654    2.2809 H       1  UNL1        0.0298
     13 C           1.8024    2.1297    2.3083 C.3     1  UNL1       -0.0619
     14 H           2.1989    2.3402    1.3146 H       1  UNL1        0.0231
     15 H           2.4276    2.6459    3.0355 H       1  UNL1        0.0231
     16 H           1.8832    1.0597    2.4856 H       1  UNL1        0.0231
     17 O          -0.4540    0.4965    1.6362 O.3     1  UNL1       -0.4616
     18 C          -0.6612   -0.3102    0.5624 C.2     1  UNL1        0.3042
     19 O          -0.9194    0.0918   -0.5598 O.2     1  UNL1       -0.2512
     20 C          -0.5217   -1.7539    0.9645 C.3     1  UNL1        0.0332
     21 H           0.4760   -1.9295    1.3619 H       1  UNL1        0.0342
     22 H          -1.2378   -1.9861    1.7502 H       1  UNL1        0.0342
     23 H          -0.6963   -2.3859    0.1003 H       1  UNL1        0.0342
@<TRIPOS>BOND
     1    19    18    2
     2    23    20    1
     3     2     1    1
     4     9     8    1
     5    18    20    1
     6    18    17    1
     7     7     5    1
     8    20    21    1
     9    20    22    1
    10     4     1    1
    11     1     5    1
    12     1     3    1
    13    14    13    1
    14     8     5    1
    15     8    17    1
    16     8    10    1
    17     5     6    1
    18    12    10    1
    19    13    10    1
    20    13    16    1
    21    13    15    1
    22    10    11    1
