@<TRIPOS>MOLECULE
/home/jramos/PycharmProjects/GeCos/examples/07-EVA_trueno_openbabel_mp2/07-EVA_g16_conformers/07-EVA_012_gaussian.xyz
 23 22 0 0 0
SMALL
GASTEIGER

@<TRIPOS>ATOM
      1 C          -2.6315    2.2965    2.3490 C.3     1  UNL11      -0.0619
      2 H          -2.7211    3.0194    1.5377 H       1  UNL11       0.0231
      3 H          -2.2720    2.8214    3.2324 H       1  UNL11       0.0231
      4 H          -3.6294    1.9216    2.5714 H       1  UNL11       0.0231
      5 C          -1.7071    1.1493    1.9520 C.3     1  UNL11      -0.0185
      6 H          -1.5696    0.4609    2.7890 H       1  UNL11       0.0298
      7 H          -2.1610    0.5859    1.1360 H       1  UNL11       0.0298
      8 C          -0.3353    1.6126    1.4820 C.3     1  UNL11       0.1026
      9 H          -0.4483    2.2613    0.6098 H       1  UNL11       0.0733
     10 C           0.5030    2.2985    2.5458 C.3     1  UNL11      -0.0185
     11 H           0.6086    1.6193    3.3955 H       1  UNL11       0.0298
     12 H          -0.0459    3.1721    2.9014 H       1  UNL11       0.0298
     13 C           1.8745    2.7254    2.0361 C.3     1  UNL11      -0.0619
     14 H           1.7762    3.3988    1.1841 H       1  UNL11       0.0231
     15 H           2.4341    3.2456    2.8123 H       1  UNL11       0.0231
     16 H           2.4521    1.8602    1.7192 H       1  UNL11       0.0231
     17 O           0.4326    0.4452    1.0707 O.3     1  UNL11      -0.4616
     18 C           0.2259    0.0148   -0.2015 C.2     1  UNL11       0.3042
     19 O          -0.5470    0.5375   -0.9871 O.2     1  UNL11      -0.2512
     20 C           1.0867   -1.1860   -0.4884 C.3     1  UNL11       0.0332
     21 H           2.1353   -0.9251   -0.3600 H       1  UNL11       0.0342
     22 H           0.8534   -1.9809    0.2170 H       1  UNL11       0.0342
     23 H           0.9069   -1.5223   -1.5040 H       1  UNL11       0.0342
@<TRIPOS>BOND
     1    23    20    1
     2    19    18    2
     3    20    18    1
     4    20    21    1
     5    20    22    1
     6    18    17    1
     7     9     8    1
     8     7     5    1
     9     2     1    1
    10    17     8    1
    11    14    13    1
    12     8     5    1
    13     8    10    1
    14     5     1    1
    15     5     6    1
    16     1     4    1
    17     1     3    1
    18    16    13    1
    19    13    10    1
    20    13    15    1
    21    10    12    1
    22    10    11    1
