@<TRIPOS>MOLECULE
/home/jramos/PycharmProjects/GeCos/examples/07-EVA_trueno_openbabel_mp2/07-EVA_g16_conformers/07-EVA_021_gaussian.xyz
 23 22 0 0 0
SMALL
GASTEIGER

@<TRIPOS>ATOM
      1 C          -2.5464    1.1782    1.8129 C.3     1  UNL11      -0.0619
      2 H          -2.5302    0.3430    1.1153 H       1  UNL11       0.0231
      3 H          -2.9745    2.0377    1.2963 H       1  UNL11       0.0231
      4 H          -3.2097    0.9135    2.6351 H       1  UNL11       0.0231
      5 C          -1.1478    1.4924    2.3313 C.3     1  UNL11      -0.0185
      6 H          -1.2132    2.2702    3.0950 H       1  UNL11       0.0298
      7 H          -0.7086    0.6124    2.7981 H       1  UNL11       0.0298
      8 C          -0.2132    2.0131    1.2459 C.3     1  UNL11       0.1026
      9 H          -0.6035    2.9699    0.8873 H       1  UNL11       0.0733
     10 C           1.2338    2.2111    1.6817 C.3     1  UNL11      -0.0185
     11 H           1.8075    2.4884    0.7947 H       1  UNL11       0.0298
     12 H           1.6293    1.2637    2.0439 H       1  UNL11       0.0298
     13 C           1.3828    3.2942    2.7466 C.3     1  UNL11      -0.0619
     14 H           0.9149    3.0021    3.6851 H       1  UNL11       0.0231
     15 H           2.4353    3.4862    2.9489 H       1  UNL11       0.0231
     16 H           0.9300    4.2314    2.4200 H       1  UNL11       0.0231
     17 O          -0.2796    1.2082    0.0279 O.3     1  UNL11      -0.4616
     18 C           0.0798   -0.0972    0.0891 C.2     1  UNL11       0.3042
     19 O           0.4665   -0.6750    1.0923 O.2     1  UNL11      -0.2512
     20 C          -0.0741   -0.7312   -1.2690 C.3     1  UNL11       0.0332
     21 H           0.2212   -1.7736   -1.2131 H       1  UNL11       0.0342
     22 H          -1.1089   -0.6512   -1.5961 H       1  UNL11       0.0342
     23 H           0.5441   -0.2038   -1.9926 H       1  UNL11       0.0342
@<TRIPOS>BOND
     1     3     1    1
     2     4     1    1
     3     1     2    1
     4     1     5    1
     5     9     8    1
     6    22    20    1
     7     6     5    1
     8     5     8    1
     9     5     7    1
    10    17     8    1
    11    17    18    1
    12     8    10    1
    13    16    13    1
    14    23    20    1
    15    20    18    1
    16    20    21    1
    17    18    19    2
    18    13    10    1
    19    13    14    1
    20    13    15    1
    21    10    11    1
    22    10    12    1
