@<TRIPOS>MOLECULE
/home/jramos/PycharmProjects/GeCos/examples/07-EVA_trueno_openbabel_mp2/07-EVA_g16_conformers/07-EVA_009_gaussian.xyz
 23 22 0 0 0
SMALL
GASTEIGER

@<TRIPOS>ATOM
      1 C          -2.1518    1.1067    2.5178 C.3     1  UNL1       -0.0619
      2 H          -2.1071    1.7828    3.3706 H       1  UNL1        0.0231
      3 H          -1.6424    0.1838    2.7882 H       1  UNL1        0.0231
      4 H          -3.2005    0.8759    2.3350 H       1  UNL1        0.0231
      5 C          -1.5156    1.7231    1.2770 C.3     1  UNL1       -0.0185
      6 H          -1.6743    1.0687    0.4178 H       1  UNL1        0.0298
      7 H          -1.9963    2.6736    1.0364 H       1  UNL1        0.0298
      8 C          -0.0178    1.9619    1.3959 C.3     1  UNL1        0.1026
      9 H           0.3620    2.4023    0.4716 H       1  UNL1        0.0733
     10 C           0.4201    2.8223    2.5728 C.3     1  UNL1       -0.0185
     11 H           1.5072    2.8967    2.5351 H       1  UNL1        0.0298
     12 H           0.1635    2.3102    3.5014 H       1  UNL1        0.0298
     13 C          -0.1899    4.2203    2.5471 C.3     1  UNL1       -0.0619
     14 H          -1.2693    4.1922    2.6902 H       1  UNL1        0.0231
     15 H           0.2334    4.8370    3.3384 H       1  UNL1        0.0231
     16 H           0.0119    4.7145    1.5964 H       1  UNL1        0.0231
     17 O           0.5800    0.6398    1.5341 O.3     1  UNL1       -0.4616
     18 C           1.8550    0.5136    1.0825 C.2     1  UNL1        0.3042
     19 O           2.5008    1.4197    0.5826 O.2     1  UNL1       -0.2512
     20 C           2.3414   -0.8956    1.2904 C.3     1  UNL1        0.0332
     21 H           2.3280   -1.1331    2.3523 H       1  UNL1        0.0342
     22 H           1.6764   -1.5932    0.7857 H       1  UNL1        0.0342
     23 H           3.3495   -0.9887    0.9005 H       1  UNL1        0.0342
@<TRIPOS>BOND
     1     6     5    1
     2     9     8    1
     3    19    18    2
     4    22    20    1
     5    23    20    1
     6     7     5    1
     7    18    20    1
     8    18    17    1
     9     5     8    1
    10     5     1    1
    11    20    21    1
    12     8    17    1
    13     8    10    1
    14    16    13    1
    15     4     1    1
    16     1     3    1
    17     1     2    1
    18    11    10    1
    19    13    10    1
    20    13    14    1
    21    13    15    1
    22    10    12    1
