@<TRIPOS>MOLECULE
/home/jramos/PycharmProjects/GeCos/examples/07-EVA_trueno_openbabel_mp2/07-EVA_g16_conformers/07-EVA_012_gaussian.xyz
 23 22 0 0 0
SMALL
GASTEIGER

@<TRIPOS>ATOM
      1 C          -2.4743    3.2257    1.5580 C.3     1  UNL1       -0.0619
      2 H          -2.2740    3.8699    0.7015 H       1  UNL1        0.0231
      3 H          -2.1603    3.7513    2.4581 H       1  UNL1        0.0231
      4 H          -3.5518    3.0807    1.6196 H       1  UNL1        0.0231
      5 C          -1.7637    1.8842    1.4040 C.3     1  UNL1       -0.0185
      6 H          -1.9147    1.2665    2.2923 H       1  UNL1        0.0298
      7 H          -2.1878    1.3464    0.5554 H       1  UNL1        0.0298
      8 C          -0.2668    2.0169    1.1612 C.3     1  UNL1        0.1026
      9 H          -0.0949    2.5875    0.2451 H       1  UNL1        0.0733
     10 C           0.5133    2.6214    2.3148 C.3     1  UNL1       -0.0185
     11 H           0.3315    2.0203    3.2092 H       1  UNL1        0.0298
     12 H           0.1128    3.6172    2.5122 H       1  UNL1        0.0298
     13 C           2.0087    2.7148    2.0351 C.3     1  UNL1       -0.0619
     14 H           2.1967    3.3086    1.1401 H       1  UNL1        0.0231
     15 H           2.5319    3.1855    2.8663 H       1  UNL1        0.0231
     16 H           2.4323    1.7252    1.8803 H       1  UNL1        0.0231
     17 O           0.2911    0.6855    0.9663 O.3     1  UNL1       -0.4616
     18 C           0.2079    0.1839   -0.2939 C.2     1  UNL1        0.3042
     19 O          -0.2968    0.7718   -1.2359 O.2     1  UNL1       -0.2512
     20 C           0.8279   -1.1865   -0.3479 C.3     1  UNL1        0.0332
     21 H           1.8726   -1.1288   -0.0491 H       1  UNL1        0.0342
     22 H           0.3185   -1.8468    0.3509 H       1  UNL1        0.0342
     23 H           0.7488   -1.5768   -1.3570 H       1  UNL1        0.0342
@<TRIPOS>BOND
     1    23    20    1
     2    19    18    2
     3    20    18    1
     4    20    21    1
     5    20    22    1
     6    18    17    1
     7     9     8    1
     8     7     5    1
     9     2     1    1
    10    17     8    1
    11    14    13    1
    12     8     5    1
    13     8    10    1
    14     5     1    1
    15     5     6    1
    16     1     4    1
    17     1     3    1
    18    16    13    1
    19    13    10    1
    20    13    15    1
    21    10    12    1
    22    10    11    1
