@<TRIPOS>MOLECULE
/home/jramos/PycharmProjects/GeCos/examples/07-EVA_trueno_openbabel_mp2/07-EVA_g16_conformers/07-EVA_011_gaussian.xyz
 23 22 0 0 0
SMALL
GASTEIGER

@<TRIPOS>ATOM
      1 C          -1.9672    1.3019    2.7071 C.3     1  UNL11      -0.0619
      2 H          -1.5326    1.6962    3.6250 H       1  UNL11       0.0231
      3 H          -1.7581    0.2342    2.6665 H       1  UNL11       0.0231
      4 H          -3.0464    1.4342    2.7702 H       1  UNL11       0.0231
      5 C          -1.4131    2.0029    1.4723 C.3     1  UNL11      -0.0185
      6 H          -1.9516    1.6805    0.5805 H       1  UNL11       0.0298
      7 H          -1.5652    3.0819    1.5479 H       1  UNL11       0.0298
      8 C           0.0683    1.7437    1.2252 C.3     1  UNL11       0.1026
      9 H           0.3719    2.2663    0.3157 H       1  UNL11       0.0733
     10 C           0.9977    2.1082    2.3710 C.3     1  UNL11      -0.0185
     11 H           2.0134    1.8501    2.0666 H       1  UNL11       0.0298
     12 H           0.7641    1.4850    3.2353 H       1  UNL11       0.0298
     13 C           0.9268    3.5850    2.7452 C.3     1  UNL11      -0.0619
     14 H          -0.0447    3.8474    3.1615 H       1  UNL11       0.0231
     15 H           1.6829    3.8277    3.4901 H       1  UNL11       0.0231
     16 H           1.1009    4.2172    1.8741 H       1  UNL11       0.0231
     17 O           0.2754    0.3174    1.0067 O.3     1  UNL11      -0.4616
     18 C           0.0419   -0.1302   -0.2550 C.2     1  UNL11       0.3042
     19 O          -0.3169    0.5780   -1.1810 O.2     1  UNL11      -0.2512
     20 C           0.2890   -1.6131   -0.3328 C.3     1  UNL11       0.0332
     21 H           1.3033   -1.8355   -0.0088 H       1  UNL11       0.0342
     22 H          -0.3947   -2.1321    0.3361 H       1  UNL11       0.0342
     23 H           0.1376   -1.9492   -1.3532 H       1  UNL11       0.0342
@<TRIPOS>BOND
     1    19    18    2
     2    23    20    1
     3    18    20    1
     4    18    17    1
     5    20    21    1
     6    20    22    1
     7     9     8    1
     8     6     5    1
     9    17     8    1
    10     8     5    1
    11     8    10    1
    12     7     5    1
    13     5     1    1
    14    16    13    1
    15    11    10    1
    16    10    13    1
    17    10    12    1
    18    13    14    1
    19    13    15    1
    20     1     4    1
    21     1     3    1
    22     1     2    1
