@<TRIPOS>MOLECULE
/home/jramos/PycharmProjects/GeCos/examples/07-EVA_trueno_openbabel_mp2/07-EVA_g16_conformers/07-EVA_022_gaussian.xyz
 23 22 0 0 0
SMALL
GASTEIGER

@<TRIPOS>ATOM
      1 C          -2.6909    1.6489    2.4168 C.3     1  UNL1       -0.0619
      2 H          -2.7159    2.5389    3.0442 H       1  UNL1        0.0231
      3 H          -2.4911    0.7892    3.0534 H       1  UNL1        0.0231
      4 H          -3.6809    1.5261    1.9795 H       1  UNL1        0.0231
      5 C          -1.6337    1.7603    1.3240 C.3     1  UNL1       -0.0185
      6 H          -1.7089    0.9050    0.6499 H       1  UNL1        0.0298
      7 H          -1.8082    2.6507    0.7165 H       1  UNL1        0.0298
      8 C          -0.2036    1.8073    1.8408 C.3     1  UNL1        0.1026
      9 H           0.4914    1.8861    1.0021 H       1  UNL1        0.0733
     10 C           0.0986    2.9134    2.8420 C.3     1  UNL1       -0.0185
     11 H           1.1462    2.8164    3.1280 H       1  UNL1        0.0298
     12 H          -0.4980    2.7507    3.7410 H       1  UNL1        0.0298
     13 C          -0.1517    4.3093    2.2798 C.3     1  UNL1       -0.0619
     14 H          -1.2087    4.4807    2.0811 H       1  UNL1        0.0231
     15 H           0.1808    5.0705    2.9838 H       1  UNL1        0.0231
     16 H           0.3953    4.4563    1.3481 H       1  UNL1        0.0231
     17 O           0.0234    0.5190    2.4836 O.3     1  UNL1       -0.4616
     18 C           1.3091    0.0802    2.4981 C.2     1  UNL1        0.3042
     19 O           2.2493    0.6890    2.0152 O.2     1  UNL1       -0.2512
     20 C           1.3940   -1.2531    3.1916 C.3     1  UNL1        0.0332
     21 H           1.0544   -1.1513    4.2205 H       1  UNL1        0.0342
     22 H           0.7414   -1.9685    2.6957 H       1  UNL1        0.0342
     23 H           2.4203   -1.6038    3.1710 H       1  UNL1        0.0342
@<TRIPOS>BOND
     1     6     5    1
     2     7     5    1
     3     9     8    1
     4     5     8    1
     5     5     1    1
     6    16    13    1
     7     8    17    1
     8     8    10    1
     9     4     1    1
    10    19    18    2
    11    14    13    1
    12    13    10    1
    13    13    15    1
    14     1     2    1
    15     1     3    1
    16    17    18    1
    17    18    20    1
    18    22    20    1
    19    10    11    1
    20    10    12    1
    21    23    20    1
    22    20    21    1
