@<TRIPOS>MOLECULE
/home/jramos/PycharmProjects/GeCos/examples/07-EVA_trueno_openbabel_mp2/07-EVA_g16_conformers/07-EVA_003_gaussian.xyz
 23 22 0 0 0
SMALL
GASTEIGER

@<TRIPOS>ATOM
      1 C          -2.3410    2.2568    2.6080 C.3     1  UNL11      -0.0619
      2 H          -2.7577    2.8462    1.7906 H       1  UNL11       0.0231
      3 H          -1.8380    2.9382    3.2928 H       1  UNL11       0.0231
      4 H          -3.1710    1.8002    3.1449 H       1  UNL11       0.0231
      5 C          -1.3924    1.1866    2.0772 C.3     1  UNL11      -0.0185
      6 H          -0.9323    0.6403    2.9021 H       1  UNL11       0.0298
      7 H          -1.9519    0.4634    1.4834 H       1  UNL11       0.0298
      8 C          -0.2958    1.7542    1.1870 C.3     1  UNL11       0.1026
      9 H          -0.7496    2.1783    0.2889 H       1  UNL11       0.0733
     10 C           0.6155    2.7826    1.8403 C.3     1  UNL11      -0.0185
     11 H           0.0270    3.6781    2.0502 H       1  UNL11       0.0298
     12 H           1.3654    3.0702    1.1010 H       1  UNL11       0.0298
     13 C           1.3049    2.2922    3.1086 C.3     1  UNL11      -0.0619
     14 H           1.8526    1.3724    2.9128 H       1  UNL11       0.0231
     15 H           2.0105    3.0377    3.4727 H       1  UNL11       0.0231
     16 H           0.5888    2.0989    3.9063 H       1  UNL11       0.0231
     17 O           0.5786    0.6655    0.7688 O.3     1  UNL11      -0.4616
     18 C           0.1579   -0.0568   -0.3023 C.2     1  UNL11       0.3042
     19 O          -0.8779    0.1547   -0.9108 O.2     1  UNL11      -0.2512
     20 C           1.1520   -1.1421   -0.6180 C.3     1  UNL11       0.0332
     21 H           2.1308   -0.7037   -0.8003 H       1  UNL11       0.0342
     22 H           1.2419   -1.8133    0.2338 H       1  UNL11       0.0342
     23 H           0.8179   -1.6917   -1.4917 H       1  UNL11       0.0342
@<TRIPOS>BOND
     1    19    18    2
     2    23    20    1
     3    18    20    1
     4    18    17    1
     5     9     8    1
     6    20    21    1
     7    20    22    1
     8     2     1    1
     9     7     5    1
    10     4     1    1
    11     8     5    1
    12     8    17    1
    13     8    10    1
    14     1     5    1
    15     1     3    1
    16     5     6    1
    17    12    10    1
    18    11    10    1
    19    10    13    1
    20    13    14    1
    21    13    16    1
    22    13    15    1
