@<TRIPOS>MOLECULE
/home/jramos/PycharmProjects/GeCos/examples/07-EVA_trueno_openbabel_mp2/07-EVA_g16_conformers/07-EVA_001_gaussian.xyz
 23 22 0 0 0
SMALL
GASTEIGER

@<TRIPOS>ATOM
      1 C          -2.6003    0.9986    2.4173 C.3     1  UNL11      -0.0619
      2 H          -2.3313   -0.0395    2.2331 H       1  UNL11       0.0231
      3 H          -3.2204    1.3412    1.5886 H       1  UNL11       0.0231
      4 H          -3.1999    1.0399    3.3255 H       1  UNL11       0.0231
      5 C          -1.3481    1.8574    2.5474 C.3     1  UNL11      -0.0185
      6 H          -1.6224    2.8957    2.7517 H       1  UNL11       0.0298
      7 H          -0.7475    1.5136    3.3907 H       1  UNL11       0.0298
      8 C          -0.4965    1.8437    1.2905 C.3     1  UNL11       0.1026
      9 H          -1.1108    2.0858    0.4204 H       1  UNL11       0.0733
     10 C           0.7093    2.7753    1.3188 C.3     1  UNL11      -0.0185
     11 H           0.3361    3.7999    1.3976 H       1  UNL11       0.0298
     12 H           1.2065    2.6986    0.3511 H       1  UNL11       0.0298
     13 C           1.6979    2.4862    2.4429 C.3     1  UNL11      -0.0619
     14 H           2.0176    1.4459    2.4128 H       1  UNL11       0.0231
     15 H           2.5815    3.1154    2.3447 H       1  UNL11       0.0231
     16 H           1.2634    2.6784    3.4227 H       1  UNL11       0.0231
     17 O          -0.0432    0.4668    1.1370 O.3     1  UNL11      -0.4616
     18 C           0.2173    0.0640   -0.1350 C.2     1  UNL11       0.3042
     19 O           0.0991    0.7747   -1.1189 O.2     1  UNL11      -0.2512
     20 C           0.6663   -1.3727   -0.1415 C.3     1  UNL11       0.0332
     21 H           1.5686   -1.4766    0.4578 H       1  UNL11       0.0342
     22 H          -0.1025   -2.0004    0.3044 H       1  UNL11       0.0342
     23 H           0.8587   -1.6841   -1.1627 H       1  UNL11       0.0342
@<TRIPOS>BOND
     1     3     1    1
     2     4     1    1
     3     1     2    1
     4     1     5    1
     5     9     8    1
     6    19    18    2
     7    22    20    1
     8    23    20    1
     9     6     5    1
    10    18    20    1
    11    18    17    1
    12     5     8    1
    13     5     7    1
    14     8    17    1
    15     8    10    1
    16    20    21    1
    17    11    10    1
    18    12    10    1
    19    10    13    1
    20    13    16    1
    21    13    14    1
    22    13    15    1
