@<TRIPOS>MOLECULE
/home/jramos/PycharmProjects/GeCos/examples/07-EVA_trueno_openbabel_mp2/07-EVA_g16_conformers/07-EVA_018_gaussian.xyz
 23 22 0 0 0
SMALL
GASTEIGER

@<TRIPOS>ATOM
      1 C          -2.2608    1.0776    2.6677 C.3     1  UNL11      -0.0619
      2 H          -1.9489    1.5356    3.6050 H       1  UNL11       0.0231
      3 H          -1.8549    0.0681    2.6327 H       1  UNL11       0.0231
      4 H          -3.3475    1.0058    2.6813 H       1  UNL11       0.0231
      5 C          -1.7944    1.8843    1.4609 C.3     1  UNL11      -0.0185
      6 H          -2.2262    1.4769    0.5459 H       1  UNL11       0.0298
      7 H          -2.1445    2.9172    1.5382 H       1  UNL11       0.0298
      8 C          -0.2818    1.9201    1.2783 C.3     1  UNL11       0.1026
      9 H          -0.0486    2.4637    0.3601 H       1  UNL11       0.0733
     10 C           0.4917    2.5121    2.4430 C.3     1  UNL11      -0.0185
     11 H           0.3304    1.8973    3.3296 H       1  UNL11       0.0298
     12 H           0.0695    3.4978    2.6555 H       1  UNL11       0.0298
     13 C           1.9840    2.6298    2.1571 C.3     1  UNL11      -0.0619
     14 H           2.1625    3.2564    1.2829 H       1  UNL11       0.0231
     15 H           2.5109    3.0722    3.0013 H       1  UNL11       0.0231
     16 H           2.4122    1.6484    1.9641 H       1  UNL11       0.0231
     17 O           0.2211    0.5608    1.1220 O.3     1  UNL11      -0.4616
     18 C           0.1463    0.0387   -0.1309 C.2     1  UNL11       0.3042
     19 O          -0.3092    0.6294   -1.0957 O.2     1  UNL11      -0.2512
     20 C           0.7049   -1.3590   -0.1437 C.3     1  UNL11       0.0332
     21 H           1.7372   -1.3458    0.2000 H       1  UNL11       0.0342
     22 H           0.1356   -1.9867    0.5389 H       1  UNL11       0.0342
     23 H           0.6505   -1.7582   -1.1510 H       1  UNL11       0.0342
@<TRIPOS>BOND
     1    23    20    1
     2    19    18    2
     3    20    18    1
     4    20    21    1
     5    20    22    1
     6    18    17    1
     7     9     8    1
     8     6     5    1
     9    17     8    1
    10     8     5    1
    11     8    10    1
    12    14    13    1
    13     5     7    1
    14     5     1    1
    15    16    13    1
    16    13    10    1
    17    13    15    1
    18    10    12    1
    19    10    11    1
    20     3     1    1
    21     1     4    1
    22     1     2    1
