@<TRIPOS>MOLECULE
/home/jramos/PycharmProjects/GeCos/examples/07-EVA_trueno_openbabel_mp2/07-EVA_g16_conformers/07-EVA_011_gaussian.xyz
 23 22 0 0 0
SMALL
GASTEIGER

@<TRIPOS>ATOM
      1 C          -2.3765    1.2490    2.6764 C.3     1  UNL1       -0.0619
      2 H          -2.0543    1.8292    3.5403 H       1  UNL1        0.0231
      3 H          -1.9848    0.2388    2.7835 H       1  UNL1        0.0231
      4 H          -3.4640    1.1959    2.7022 H       1  UNL1        0.0231
      5 C          -1.9016    1.8710    1.3684 C.3     1  UNL1       -0.0185
      6 H          -2.3396    1.3460    0.5188 H       1  UNL1        0.0298
      7 H          -2.2406    2.9068    1.2954 H       1  UNL1        0.0298
      8 C          -0.3889    1.8474    1.1844 C.3     1  UNL1        0.1026
      9 H          -0.1431    2.2932    0.2183 H       1  UNL1        0.0733
     10 C           0.4161    2.5154    2.2868 C.3     1  UNL1       -0.0185
     11 H           1.4727    2.4033    2.0378 H       1  UNL1        0.0298
     12 H           0.2584    1.9779    3.2229 H       1  UNL1        0.0298
     13 C           0.0762    3.9923    2.4576 C.3     1  UNL1       -0.0619
     14 H          -0.9421    4.1308    2.8177 H       1  UNL1        0.0231
     15 H           0.7481    4.4590    3.1762 H       1  UNL1        0.0231
     16 H           0.1741    4.5272    1.5125 H       1  UNL1        0.0231
     17 O           0.0699    0.4640    1.1635 O.3     1  UNL1       -0.4616
     18 C          -0.0311   -0.1773   -0.0304 C.2     1  UNL1        0.3042
     19 O          -0.4686    0.3306   -1.0494 O.2     1  UNL1       -0.2512
     20 C           0.4711   -1.5907    0.0964 C.3     1  UNL1        0.0332
     21 H           1.4945   -1.5868    0.4652 H       1  UNL1        0.0342
     22 H          -0.1396   -2.1312    0.8170 H       1  UNL1        0.0342
     23 H           0.4218   -2.0774   -0.8719 H       1  UNL1        0.0342
@<TRIPOS>BOND
     1    19    18    2
     2    23    20    1
     3    18    20    1
     4    18    17    1
     5    20    21    1
     6    20    22    1
     7     9     8    1
     8     6     5    1
     9    17     8    1
    10     8     5    1
    11     8    10    1
    12     7     5    1
    13     5     1    1
    14    16    13    1
    15    11    10    1
    16    10    13    1
    17    10    12    1
    18    13    14    1
    19    13    15    1
    20     1     4    1
    21     1     3    1
    22     1     2    1
