@<TRIPOS>MOLECULE
/home/jramos/Documentos/___MIS_PETICIONES_PROYECTOS___/2019-Proyecto-PN-GenCon/13-Resultados/2022-Spectra_IR/02-EVOH_extract_from_MD_monomer/MD_extract_g16_conformers/MD_extract_012_gaussian.xyz
 18 17 0 0 0
SMALL
GASTEIGER

@<TRIPOS>ATOM
      1 C          10.7205    3.5646    3.3791 C.3     1  UNL11      -0.0629
      2 H          10.2287    3.5837    2.3938 H       1  UNL11       0.0231
      3 H          10.3496    2.6775    3.9201 H       1  UNL11       0.0231
      4 H          11.7989    3.4218    3.2059 H       1  UNL11       0.0231
      5 C          10.4621    4.8573    4.1803 C.3     1  UNL11      -0.0297
      6 H          10.7956    5.7390    3.6047 H       1  UNL11       0.0287
      7 H          11.0570    4.8493    5.1091 H       1  UNL11       0.0287
      8 C           8.9906    5.0758    4.5841 C.3     1  UNL11       0.0548
      9 H           8.6499    4.1912    5.1690 H       1  UNL11       0.0593
     10 O           8.9963    6.2537    5.4303 O.3     1  UNL11      -0.3918
     11 C           8.0387    5.2560    3.3770 C.3     1  UNL11      -0.0297
     12 H           8.1100    6.3246    5.8328 H       1  UNL11       0.2098
     13 H           8.4224    6.0846    2.7556 H       1  UNL11       0.0287
     14 H           8.0713    4.3439    2.7565 H       1  UNL11       0.0287
     15 C           6.5780    5.5410    3.7847 C.3     1  UNL11      -0.0629
     16 H           6.1770    4.7384    4.4278 H       1  UNL11       0.0231
     17 H           5.9227    5.6200    2.9033 H       1  UNL11       0.0231
     18 H           6.4968    6.4929    4.3356 H       1  UNL11       0.0231
@<TRIPOS>BOND
     1     7     5    1
     2    12    10    1
     3    10     8    1
     4     9     8    1
     5     5     8    1
     6     5     6    1
     7     5     1    1
     8     3     1    1
     9     8    11    1
    10     4     1    1
    11     1     2    1
    12    16    15    1
    13    18    15    1
    14    11    15    1
    15    11    14    1
    16    11    13    1
    17    15    17    1
