@<TRIPOS>MOLECULE
/home/jramos/Documentos/___MIS_PETICIONES_PROYECTOS___/2019-Proyecto-PN-GenCon/13-Resultados/2022-Spectra_IR/02-EVOH_extract_from_MD_monomer/MD_extract_g16_conformers/MD_extract_012_gaussian.xyz
 18 17 0 0 0
SMALL
GASTEIGER

@<TRIPOS>ATOM
      1 C           5.8820   15.0610   10.5131 C.3     1  UNL1       -0.0629
      2 H           5.8061   14.9349   11.6047 H       1  UNL1        0.0231
      3 H           5.1507   14.3791   10.0468 H       1  UNL1        0.0231
      4 H           5.5723   16.0917   10.2786 H       1  UNL1        0.0231
      5 C           7.3098   14.7884    9.9967 C.3     1  UNL1       -0.0297
      6 H           8.0351   15.4461   10.5078 H       1  UNL1        0.0287
      7 H           7.3738   15.0306    8.9225 H       1  UNL1        0.0287
      8 C           7.7826   13.3307   10.1636 C.3     1  UNL1        0.0548
      9 H           7.0568   12.6627    9.6460 H       1  UNL1        0.0593
     10 O           9.0706   13.2673    9.4999 O.3     1  UNL1       -0.3918
     11 C           7.8890   12.8808   11.6407 C.3     1  UNL1       -0.0297
     12 H           9.3218   12.3257    9.4459 H       1  UNL1        0.2098
     13 H           8.5484   13.5906   12.1710 H       1  UNL1        0.0287
     14 H           6.8923   12.9527   12.1092 H       1  UNL1        0.0287
     15 C           8.4260   11.4437   11.8072 C.3     1  UNL1       -0.0629
     16 H           7.7978   10.7153   11.2655 H       1  UNL1        0.0231
     17 H           8.4470   11.1426   12.8661 H       1  UNL1        0.0231
     18 H           9.4567   11.3570   11.4247 H       1  UNL1        0.0231
@<TRIPOS>BOND
     1     7     5    1
     2    12    10    1
     3    10     8    1
     4     9     8    1
     5     5     8    1
     6     5     6    1
     7     5     1    1
     8     3     1    1
     9     8    11    1
    10     4     1    1
    11     1     2    1
    12    16    15    1
    13    18    15    1
    14    11    15    1
    15    11    14    1
    16    11    13    1
    17    15    17    1
