@<TRIPOS>MOLECULE
/home/jramos/Documentos/___MIS_PETICIONES_PROYECTOS___/2019-Proyecto-PN-GenCon/13-Resultados/2022-Spectra_IR/02-EVOH_extract_from_MD_monomer/MD_extract_g16_conformers/MD_extract_011_gaussian.xyz
 18 17 0 0 0
SMALL
GASTEIGER

@<TRIPOS>ATOM
      1 C          10.5268    3.7618    3.1401 C.3     1  UNL11      -0.0629
      2 H          11.4879    3.8131    2.6044 H       1  UNL11       0.0231
      3 H           9.7369    3.5957    2.3903 H       1  UNL11       0.0231
      4 H          10.5561    2.8751    3.7952 H       1  UNL11       0.0231
      5 C          10.2776    5.0478    3.9563 C.3     1  UNL11      -0.0297
      6 H          10.2017    5.9121    3.2697 H       1  UNL11       0.0287
      7 H          11.1383    5.2538    4.6143 H       1  UNL11       0.0287
      8 C           9.0179    5.0046    4.8547 C.3     1  UNL11       0.0548
      9 H           9.1501    4.1943    5.5947 H       1  UNL11       0.0593
     10 O           8.9343    6.2051    5.6638 O.3     1  UNL11      -0.3918
     11 C           7.6853    4.7434    4.1033 C.3     1  UNL11      -0.0297
     12 H           8.9393    6.9608    5.0438 H       1  UNL11       0.2098
     13 H           7.7146    3.7346    3.6549 H       1  UNL11       0.0287
     14 H           6.8847    4.7285    4.8617 H       1  UNL11       0.0287
     15 C           7.3445    5.7859    3.0172 C.3     1  UNL11      -0.0629
     16 H           8.0750    5.7767    2.1923 H       1  UNL11       0.0231
     17 H           7.3214    6.8055    3.4378 H       1  UNL11       0.0231
     18 H           6.3513    5.5928    2.5827 H       1  UNL11       0.0231
@<TRIPOS>BOND
     1    17    15    1
     2    12    10    1
     3    18    15    1
     4    10     8    1
     5    15    16    1
     6    15    11    1
     7    14    11    1
     8    11     8    1
     9    11    13    1
    10     8     9    1
    11     8     5    1
    12     6     5    1
    13     5     7    1
    14     5     1    1
    15     3     1    1
    16     1     2    1
    17     1     4    1
