@<TRIPOS>MOLECULE
/home/jramos/Documentos/___MIS_PETICIONES_PROYECTOS___/2019-Proyecto-PN-GenCon/13-Resultados/2022-Spectra_IR/02-EVOH_extract_from_MD_monomer/MD_extract_g16_conformers/MD_extract_011_gaussian.xyz
 18 17 0 0 0
SMALL
GASTEIGER

@<TRIPOS>ATOM
      1 C          14.7366    3.6795   10.5552 C.3     1  UNL1       -0.0629
      2 H          15.6399    3.3616   11.0995 H       1  UNL1        0.0231
      3 H          14.0961    2.7923   10.4275 H       1  UNL1        0.0231
      4 H          14.1933    4.3931   11.1971 H       1  UNL1        0.0231
      5 C          15.1026    4.3191    9.1991 C.3     1  UNL1       -0.0297
      6 H          15.5995    3.5666    8.5580 H       1  UNL1        0.0287
      7 H          15.8365    5.1291    9.3460 H       1  UNL1        0.0287
      8 C          13.9037    4.9250    8.4300 C.3     1  UNL1        0.0548
      9 H          13.4751    5.7374    9.0448 H       1  UNL1        0.0593
     10 O          14.3628    5.6001    7.2316 O.3     1  UNL1       -0.3918
     11 C          12.7607    3.9265    8.1057 C.3     1  UNL1       -0.0297
     12 H          14.8595    4.9384    6.7110 H       1  UNL1        0.2098
     13 H          12.3081    3.5756    9.0499 H       1  UNL1        0.0287
     14 H          11.9790    4.4930    7.5724 H       1  UNL1        0.0287
     15 C          13.1890    2.7140    7.2519 C.3     1  UNL1       -0.0629
     16 H          13.9089    2.0696    7.7817 H       1  UNL1        0.0231
     17 H          13.6565    3.0383    6.3067 H       1  UNL1        0.0231
     18 H          12.3202    2.0919    6.9861 H       1  UNL1        0.0231
@<TRIPOS>BOND
     1    17    15    1
     2    12    10    1
     3    18    15    1
     4    10     8    1
     5    15    16    1
     6    15    11    1
     7    14    11    1
     8    11     8    1
     9    11    13    1
    10     8     9    1
    11     8     5    1
    12     6     5    1
    13     5     7    1
    14     5     1    1
    15     3     1    1
    16     1     2    1
    17     1     4    1
