@<TRIPOS>MOLECULE
/home/jramos/PycharmProjects/GeCos/examples/02-IsoP_trueno_openbabel_mp2/02-IsoP_g16_conformers/02-IsoP_002_gaussian.xyz
 28 27 0 0 0
SMALL
GASTEIGER

@<TRIPOS>ATOM
      1 C           2.2803    1.3272   -9.0635 C.3     1  UNL1       -0.0286
      2 H           1.9805    0.3609   -9.4842 H       1  UNL1        0.0313
      3 H           2.1912    2.0626   -9.8664 H       1  UNL1        0.0313
      4 C           3.7087    1.2554   -8.5884 C.2     1  UNL1       -0.0765
      5 C           4.0065    0.1676   -7.5906 C.3     1  UNL1       -0.0438
      6 H           5.0717   -0.0203   -7.4816 H       1  UNL1        0.0274
      7 H           3.6092    0.4123   -6.6039 H       1  UNL1        0.0274
      8 H           3.5340   -0.7655   -7.9031 H       1  UNL1        0.0274
      9 C           4.6116    2.1494   -9.0342 C.2     1  UNL1       -0.0881
     10 H           4.2647    2.8829   -9.7571 H       1  UNL1        0.0569
     11 C           6.0572    2.2649   -8.6571 C.3     1  UNL1       -0.0466
     12 H           6.3573    1.5297   -7.9149 H       1  UNL1        0.0272
     13 H           6.6983    2.1433   -9.5321 H       1  UNL1        0.0272
     14 H           6.2666    3.2539   -8.2454 H       1  UNL1        0.0272
     15 C          -2.2414    2.7184   -9.3009 C.3     1  UNL1       -0.0440
     16 H          -2.5508    1.6764   -9.3671 H       1  UNL1        0.0274
     17 H          -2.9469    3.2445   -8.6537 H       1  UNL1        0.0274
     18 H          -2.3288    3.1657  -10.2937 H       1  UNL1        0.0274
     19 C          -0.8374    2.8463   -8.7771 C.2     1  UNL1       -0.0796
     20 C          -0.3403    4.2601   -8.6562 C.3     1  UNL1       -0.0440
     21 H           0.6879    4.3214   -8.3096 H       1  UNL1        0.0274
     22 H          -0.3998    4.7631   -9.6237 H       1  UNL1        0.0274
     23 H          -0.9680    4.8283   -7.9661 H       1  UNL1        0.0274
     24 C          -0.1214    1.7537   -8.4511 C.2     1  UNL1       -0.0850
     25 H          -0.5922    0.7855   -8.6042 H       1  UNL1        0.0572
     26 C           1.2899    1.7055   -7.9471 C.3     1  UNL1       -0.0308
     27 H           1.5962    2.6615   -7.5203 H       1  UNL1        0.0310
     28 H           1.3538    0.9708   -7.1405 H       1  UNL1        0.0310
@<TRIPOS>BOND
     1    18    15    1
     2     3     1    1
     3    10     9    1
     4    22    20    1
     5    13    11    1
     6     2     1    1
     7    16    15    1
     8    15    19    1
     9    15    17    1
    10     1     4    1
    11     1    26    1
    12     9    11    1
    13     9     4    2
    14    19    20    1
    15    19    24    2
    16    11    14    1
    17    11    12    1
    18    20    21    1
    19    20    23    1
    20    25    24    1
    21     4     5    1
    22    24    26    1
    23    26    27    1
    24    26    28    1
    25     8     5    1
    26     5     6    1
    27     5     7    1
