@<TRIPOS>MOLECULE
/home/jramos/PycharmProjects/GeCos/examples/02-IsoP_trueno_openbabel_mp2/02-IsoP_g16_conformers/02-IsoP_009_gaussian.xyz
 28 27 0 0 0
SMALL
GASTEIGER

@<TRIPOS>ATOM
      1 C           2.9658    2.1085   -8.5052 C.3     1  UNL11      -0.0286
      2 H           2.2137    2.1681   -9.2999 H       1  UNL11       0.0313
      3 H           3.4560    3.0838   -8.4604 H       1  UNL11       0.0313
      4 C           3.9756    1.0405   -8.8382 C.2     1  UNL11      -0.0765
      5 C           3.4093   -0.3323   -9.0878 C.3     1  UNL11      -0.0438
      6 H           4.1186   -0.9952   -9.5773 H       1  UNL11       0.0274
      7 H           3.0959   -0.8093   -8.1573 H       1  UNL11       0.0274
      8 H           2.5253   -0.2618   -9.7243 H       1  UNL11       0.0274
      9 C           5.2880    1.3407   -8.8658 C.2     1  UNL11      -0.0881
     10 H           5.5624    2.3737   -8.6694 H       1  UNL11       0.0569
     11 C           6.4380    0.4195   -9.1381 C.3     1  UNL11      -0.0466
     12 H           6.1231   -0.6078   -9.3021 H       1  UNL11       0.0272
     13 H           6.9981    0.7456  -10.0164 H       1  UNL11       0.0272
     14 H           7.1355    0.4209   -8.2986 H       1  UNL11       0.0272
     15 C           0.2780    4.9969   -5.8845 C.3     1  UNL11      -0.0440
     16 H          -0.5806    4.7529   -6.5083 H       1  UNL11       0.0274
     17 H          -0.0569    5.0480   -4.8460 H       1  UNL11       0.0274
     18 H           0.6248    5.9968   -6.1547 H       1  UNL11       0.0274
     19 C           1.3810    3.9864   -6.0417 C.2     1  UNL11      -0.0796
     20 C           2.6013    4.2560   -5.2058 C.3     1  UNL11      -0.0440
     21 H           3.3951    3.5312   -5.3657 H       1  UNL11       0.0274
     22 H           3.0000    5.2473   -5.4322 H       1  UNL11       0.0274
     23 H           2.3453    4.2539   -4.1440 H       1  UNL11       0.0274
     24 C           1.2407    2.9371   -6.8736 C.2     1  UNL11      -0.0850
     25 H           0.3130    2.8680   -7.4364 H       1  UNL11       0.0572
     26 C           2.2470    1.8647   -7.1657 C.3     1  UNL11      -0.0308
     27 H           2.9972    1.7929   -6.3771 H       1  UNL11       0.0310
     28 H           1.7370    0.8986   -7.1979 H       1  UNL11       0.0310
@<TRIPOS>BOND
     1    13    11    1
     2    10     9    1
     3     3     1    1
     4     2     1    1
     5     9    11    1
     6     9     4    2
     7    18    15    1
     8    11    12    1
     9    11    14    1
    10     1     4    1
    11     1    26    1
    12     4     5    1
    13     8     5    1
    14    16    15    1
    15    22    20    1
    16     6     5    1
    17    25    24    1
    18    15    19    1
    19    15    17    1
    20     5     7    1
    21    24    19    2
    22    24    26    1
    23    19    20    1
    24    26    27    1
    25    26    28    1
    26    20    21    1
    27    20    23    1
