@<TRIPOS>MOLECULE
/home/jramos/PycharmProjects/GeCos/examples/02-IsoP_trueno_openbabel_mp2/02-IsoP_g16_conformers/02-IsoP_040_gaussian.xyz
 28 27 0 0 0
SMALL
GASTEIGER

@<TRIPOS>ATOM
      1 C           2.1247    0.8481   -8.5153 C.3     1  UNL11      -0.0286
      2 H           1.7185    0.1156   -7.8072 H       1  UNL11       0.0313
      3 H           1.8024    0.4995   -9.5034 H       1  UNL11       0.0313
      4 C           3.6336    0.7721   -8.4616 C.2     1  UNL11      -0.0765
      5 C           4.1559   -0.6298   -8.6275 C.3     1  UNL11      -0.0438
      6 H           5.2407   -0.6848   -8.6516 H       1  UNL11       0.0274
      7 H           3.8049   -1.2644   -7.8108 H       1  UNL11       0.0274
      8 H           3.7768   -1.0680   -9.5534 H       1  UNL11       0.0274
      9 C           4.4068    1.8619   -8.3043 C.2     1  UNL11      -0.0881
     10 H           3.9119    2.8165   -8.1788 H       1  UNL11       0.0569
     11 C           5.9036    1.9283   -8.2536 C.3     1  UNL11      -0.0466
     12 H           6.3790    0.9598   -8.3845 H       1  UNL11       0.0272
     13 H           6.2840    2.5941   -9.0304 H       1  UNL11       0.0272
     14 H           6.2356    2.3358   -7.2968 H       1  UNL11       0.0272
     15 C           2.1241    4.1005   -4.8620 C.3     1  UNL11      -0.0440
     16 H           1.8789    3.2096   -4.2858 H       1  UNL11       0.0274
     17 H           3.1378    4.4106   -4.5976 H       1  UNL11       0.0274
     18 H           1.4552    4.9057   -4.5498 H       1  UNL11       0.0274
     19 C           2.0108    3.8508   -6.3408 C.2     1  UNL11      -0.0796
     20 C           2.3403    5.0390   -7.2010 C.3     1  UNL11      -0.0440
     21 H           2.2374    4.8384   -8.2643 H       1  UNL11       0.0274
     22 H           1.6863    5.8783   -6.9543 H       1  UNL11       0.0274
     23 H           3.3642    5.3713   -7.0137 H       1  UNL11       0.0274
     24 C           1.6488    2.6414   -6.8073 C.2     1  UNL11      -0.0850
     25 H           1.4355    1.8686   -6.0715 H       1  UNL11       0.0572
     26 C           1.4761    2.2057   -8.2330 C.3     1  UNL11      -0.0308
     27 H           0.4069    2.1102   -8.4500 H       1  UNL11       0.0310
     28 H           1.8627    2.9482   -8.9314 H       1  UNL11       0.0310
@<TRIPOS>BOND
     1     8     5    1
     2     3     1    1
     3     5     6    1
     4     5     7    1
     5     5     4    1
     6     2     1    1
     7     1     4    1
     8     1    26    1
     9     4     9    2
    10    12    11    1
    11    27    26    1
    12     9    11    1
    13     9    10    1
    14    26    28    1
    15    26    24    1
    16    13    11    1
    17    11    14    1
    18    25    24    1
    19    24    19    2
    20    21    20    1
    21    19    20    1
    22    19    15    1
    23    20    23    1
    24    20    22    1
    25    16    15    1
    26    15    17    1
    27    15    18    1
