@<TRIPOS>MOLECULE
/home/jramos/PycharmProjects/GeCos/examples/02-IsoP_trueno_openbabel_mp2/02-IsoP_g16_conformers/02-IsoP_005_gaussian.xyz
 28 27 0 0 0
SMALL
GASTEIGER

@<TRIPOS>ATOM
      1 C           3.0958    1.3196   -7.4364 C.3     1  UNL11      -0.0286
      2 H           3.6820    1.7127   -6.6025 H       1  UNL11       0.0313
      3 H           2.4888    0.4989   -7.0379 H       1  UNL11       0.0313
      4 C           4.0154    0.7989   -8.5107 C.2     1  UNL11      -0.0765
      5 C           3.3407    0.0831   -9.6510 C.3     1  UNL11      -0.0438
      6 H           4.0367   -0.4981  -10.2508 H       1  UNL11       0.0274
      7 H           2.5813   -0.6001   -9.2662 H       1  UNL11       0.0274
      8 H           2.8328    0.7836  -10.3165 H       1  UNL11       0.0274
      9 C           5.3416    1.0147   -8.4238 C.2     1  UNL11      -0.0881
     10 H           5.6991    1.5439   -7.5445 H       1  UNL11       0.0569
     11 C           6.4063    0.6120   -9.3982 C.3     1  UNL11      -0.0466
     12 H           6.0049    0.1085  -10.2741 H       1  UNL11       0.0272
     13 H           6.9579    1.4878   -9.7448 H       1  UNL11       0.0272
     14 H           7.1319   -0.0543   -8.9282 H       1  UNL11       0.0272
     15 C           0.3828    4.3615   -5.0235 C.3     1  UNL11      -0.0440
     16 H          -0.3904    3.5988   -4.9444 H       1  UNL11       0.0274
     17 H           0.8803    4.4470   -4.0547 H       1  UNL11       0.0274
     18 H          -0.1016    5.3214   -5.2162 H       1  UNL11       0.0274
     19 C           1.3731    4.0349   -6.1074 C.2     1  UNL11      -0.0796
     20 C           2.4714    5.0473   -6.2783 C.3     1  UNL11      -0.0440
     21 H           3.1916    4.7687   -7.0430 H       1  UNL11       0.0274
     22 H           2.0550    6.0225   -6.5400 H       1  UNL11       0.0274
     23 H           3.0120    5.1771   -5.3383 H       1  UNL11       0.0274
     24 C           1.2442    2.9152   -6.8438 C.2     1  UNL11      -0.0850
     25 H           0.4136    2.2549   -6.6058 H       1  UNL11       0.0572
     26 C           2.1534    2.4311   -7.9334 C.3     1  UNL11      -0.0308
     27 H           1.5467    2.0506   -8.7591 H       1  UNL11       0.0310
     28 H           2.7578    3.2423   -8.3413 H       1  UNL11       0.0310
@<TRIPOS>BOND
     1     3     1    1
     2     2     1    1
     3    14    11    1
     4    17    15    1
     5     1     4    1
     6     1    26    1
     7    16    15    1
     8     7     5    1
     9    10     9    1
    10    25    24    1
    11     4     9    2
    12     4     5    1
    13     9    11    1
    14    15    19    1
    15    15    18    1
    16     6     5    1
    17    11    12    1
    18    11    13    1
    19     5     8    1
    20    24    19    2
    21    24    26    1
    22    19    20    1
    23    23    20    1
    24    26    27    1
    25    26    28    1
    26    20    21    1
    27    20    22    1
