@<TRIPOS>MOLECULE
/home/jramos/PycharmProjects/GeCos/examples/02-IsoP_trueno_openbabel_mp2/02-IsoP_g16_conformers/02-IsoP_030_gaussian.xyz
 28 27 0 0 0
SMALL
GASTEIGER

@<TRIPOS>ATOM
      1 C           2.4170    1.0131   -8.2654 C.3     1  UNL11      -0.0286
      2 H           2.2209   -0.0454   -8.4549 H       1  UNL11       0.0313
      3 H           1.6699    1.5826   -8.8250 H       1  UNL11       0.0313
      4 C           3.8033    1.3730   -8.7541 C.2     1  UNL11      -0.0765
      5 C           3.9379    2.7334   -9.3817 C.3     1  UNL11      -0.0438
      6 H           4.9687    3.0053   -9.5955 H       1  UNL11       0.0274
      7 H           3.3784    2.7688  -10.3195 H       1  UNL11       0.0274
      8 H           3.5106    3.4934   -8.7269 H       1  UNL11       0.0274
      9 C           4.8072    0.4892   -8.5997 C.2     1  UNL11      -0.0881
     10 H           4.5545   -0.4673   -8.1474 H       1  UNL11       0.0569
     11 C           6.2487    0.6485   -8.9762 C.3     1  UNL11      -0.0466
     12 H           6.4616    1.6179   -9.4192 H       1  UNL11       0.0272
     13 H           6.8916    0.5314   -8.1018 H       1  UNL11       0.0272
     14 H           6.5468   -0.1183   -9.6936 H       1  UNL11       0.0272
     15 C           2.0893    5.0909   -5.8458 C.3     1  UNL11      -0.0440
     16 H           3.1700    5.1332   -5.7180 H       1  UNL11       0.0274
     17 H           1.8051    5.8202   -6.6078 H       1  UNL11       0.0274
     18 H           1.6213    5.4107   -4.9119 H       1  UNL11       0.0274
     19 C           1.6323    3.7098   -6.2276 C.2     1  UNL11      -0.0796
     20 C           0.1483    3.5694   -6.4223 C.3     1  UNL11      -0.0440
     21 H          -0.1473    2.5666   -6.7195 H       1  UNL11       0.0274
     22 H          -0.3844    3.8255   -5.5037 H       1  UNL11       0.0274
     23 H          -0.1977    4.2634   -7.1913 H       1  UNL11       0.0274
     24 C           2.5178    2.7053   -6.3731 C.2     1  UNL11      -0.0850
     25 H           3.5679    2.9390   -6.2215 H       1  UNL11       0.0572
     26 C           2.2229    1.2857   -6.7607 C.3     1  UNL11      -0.0308
     27 H           2.8968    0.6241   -6.2103 H       1  UNL11       0.0310
     28 H           1.2073    1.0047   -6.4758 H       1  UNL11       0.0310
@<TRIPOS>BOND
     1    23    20    1
     2     7     5    1
     3     3     1    1
     4    21    20    1
     5    20    22    1
     6    20    19    1
     7     2     1    1
     8     5     8    1
     9     5     6    1
    10     5     4    1
    11     1     4    1
    12     1    26    1
    13    17    15    1
    14     4     9    2
    15    28    26    1
    16    19    15    1
    17    19    24    2
    18    26    24    1
    19    26    27    1
    20    15    18    1
    21    15    16    1
    22    24    25    1
    23     9    10    1
    24     9    11    1
    25    12    11    1
    26    14    11    1
    27    11    13    1
