@<TRIPOS>MOLECULE
/home/jramos/PycharmProjects/GeCos/examples/02-IsoP_trueno_openbabel_mp2/02-IsoP_g16_conformers/02-IsoP_007_gaussian.xyz
 28 27 0 0 0
SMALL
GASTEIGER

@<TRIPOS>ATOM
      1 C           2.2652    1.1934   -9.1164 C.3     1  UNL1       -0.0286
      2 H           1.9994    0.1613   -9.3562 H       1  UNL1        0.0313
      3 H           2.1727    1.7769  -10.0395 H       1  UNL1        0.0313
      4 C           3.6884    1.2463   -8.6242 C.2     1  UNL1       -0.0765
      5 C           4.2397    2.6288   -8.4007 C.3     1  UNL1       -0.0438
      6 H           5.3156    2.6329   -8.2458 H       1  UNL1        0.0274
      7 H           4.0237    3.2631   -9.2628 H       1  UNL1        0.0274
      8 H           3.7773    3.1034   -7.5327 H       1  UNL1        0.0274
      9 C           4.3629    0.1056   -8.3859 C.2     1  UNL1       -0.0881
     10 H           3.8401   -0.8257   -8.5855 H       1  UNL1        0.0569
     11 C           5.7601   -0.0504   -7.8678 C.3     1  UNL1       -0.0466
     12 H           6.2443    0.9021   -7.6681 H       1  UNL1        0.0272
     13 H           5.7604   -0.6230   -6.9385 H       1  UNL1        0.0272
     14 H           6.3788   -0.6003   -8.5794 H       1  UNL1        0.0272
     15 C           0.7999   -0.7086   -5.0575 C.3     1  UNL1       -0.0440
     16 H           1.6238   -0.2451   -4.5169 H       1  UNL1        0.0274
     17 H          -0.0953   -0.6505   -4.4341 H       1  UNL1        0.0274
     18 H           1.0279   -1.7692   -5.1856 H       1  UNL1        0.0274
     19 C           0.5706   -0.0453   -6.3876 C.2     1  UNL1       -0.0796
     20 C          -0.5534   -0.6320   -7.1956 C.3     1  UNL1       -0.0440
     21 H          -0.6809   -0.1485   -8.1607 H       1  UNL1        0.0274
     22 H          -0.3735   -1.6945   -7.3736 H       1  UNL1        0.0274
     23 H          -1.4966   -0.5591   -6.6495 H       1  UNL1        0.0274
     24 C           1.3368    0.9884   -6.7839 C.2     1  UNL1       -0.0850
     25 H           2.1337    1.3013   -6.1155 H       1  UNL1        0.0572
     26 C           1.2522    1.7292   -8.0855 C.3     1  UNL1       -0.0308
     27 H           0.2497    1.6661   -8.5110 H       1  UNL1        0.0310
     28 H           1.4407    2.7912   -7.9096 H       1  UNL1        0.0310
@<TRIPOS>BOND
     1     3     1    1
     2     2     1    1
     3     7     5    1
     4     1     4    1
     5     1    26    1
     6     4     5    1
     7     4     9    2
     8    10     9    1
     9    14    11    1
    10    27    26    1
    11     5     6    1
    12     5     8    1
    13     9    11    1
    14    21    20    1
    15    26    28    1
    16    26    24    1
    17    11    12    1
    18    11    13    1
    19    22    20    1
    20    20    23    1
    21    20    19    1
    22    24    19    2
    23    24    25    1
    24    19    15    1
    25    18    15    1
    26    15    16    1
    27    15    17    1
