@<TRIPOS>MOLECULE
/home/jramos/PycharmProjects/GeCos/examples/02-IsoP_trueno_openbabel_mp2/02-IsoP_g16_conformers/02-IsoP_013_gaussian.xyz
 28 27 0 0 0
SMALL
GASTEIGER

@<TRIPOS>ATOM
      1 C           2.1381    0.9734   -9.0002 C.3     1  UNL1       -0.0286
      2 H           1.9855   -0.0974   -9.1619 H       1  UNL1        0.0313
      3 H           2.0415    1.4568   -9.9757 H       1  UNL1        0.0313
      4 C           3.5232    1.2167   -8.4417 C.2     1  UNL1       -0.0765
      5 C           4.1453    0.0610   -7.7091 C.3     1  UNL1       -0.0438
      6 H           5.1114    0.3029   -7.2727 H       1  UNL1        0.0274
      7 H           3.4835   -0.2739   -6.9100 H       1  UNL1        0.0274
      8 H           4.2848   -0.7819   -8.3899 H       1  UNL1        0.0274
      9 C           4.0961    2.4234   -8.6126 C.2     1  UNL1       -0.0881
     10 H           3.5322    3.1587   -9.1828 H       1  UNL1        0.0569
     11 C           5.4248    2.8994   -8.1097 C.3     1  UNL1       -0.0466
     12 H           5.9640    2.1323   -7.5600 H       1  UNL1        0.0272
     13 H           6.0578    3.2247   -8.9372 H       1  UNL1        0.0272
     14 H           5.3005    3.7589   -7.4480 H       1  UNL1        0.0272
     15 C           1.3777    0.5475   -4.2992 C.3     1  UNL1       -0.0440
     16 H           0.9295   -0.4292   -4.4756 H       1  UNL1        0.0274
     17 H           2.3722    0.3968   -3.8728 H       1  UNL1        0.0274
     18 H           0.7842    1.0647   -3.5418 H       1  UNL1        0.0274
     19 C           1.4555    1.3586   -5.5639 C.2     1  UNL1       -0.0796
     20 C           2.0584    2.7250   -5.3937 C.3     1  UNL1       -0.0440
     21 H           2.1392    3.2727   -6.3280 H       1  UNL1        0.0274
     22 H           1.4693    3.3172   -4.6894 H       1  UNL1        0.0274
     23 H           3.0627    2.6384   -4.9729 H       1  UNL1        0.0274
     24 C           1.0120    0.8532   -6.7311 C.2     1  UNL1       -0.0850
     25 H           0.6157   -0.1599   -6.7153 H       1  UNL1        0.0572
     26 C           1.0256    1.5105   -8.0779 C.3     1  UNL1       -0.0308
     27 H           0.0589    1.3454   -8.5637 H       1  UNL1        0.0310
     28 H           1.1482    2.5901   -7.9858 H       1  UNL1        0.0310
@<TRIPOS>BOND
     1     3     1    1
     2    10     9    1
     3     2     1    1
     4     1     4    1
     5     1    26    1
     6    13    11    1
     7     9     4    2
     8     9    11    1
     9    27    26    1
    10     4     5    1
    11     8     5    1
    12    11    12    1
    13    11    14    1
    14    26    28    1
    15    26    24    1
    16     5     6    1
    17     5     7    1
    18    24    25    1
    19    24    19    2
    20    21    20    1
    21    19    20    1
    22    19    15    1
    23    20    23    1
    24    20    22    1
    25    16    15    1
    26    15    17    1
    27    15    18    1
