@<TRIPOS>MOLECULE
/home/jramos/PycharmProjects/GeCos/examples/02-IsoP_trueno_openbabel_mp2/02-IsoP_g16_conformers/02-IsoP_026_gaussian.xyz
 28 27 0 0 0
SMALL
GASTEIGER

@<TRIPOS>ATOM
      1 C           2.9896    2.0324   -8.3394 C.3     1  UNL11      -0.0286
      2 H           2.0347    1.5147   -8.1980 H       1  UNL11       0.0313
      3 H           2.8540    2.7209   -9.1772 H       1  UNL11       0.0313
      4 C           4.0714    1.0363   -8.6674 C.2     1  UNL11      -0.0765
      5 C           4.2694   -0.0579   -7.6519 C.3     1  UNL11      -0.0438
      6 H           4.8482   -0.8917   -8.0415 H       1  UNL11       0.0274
      7 H           4.7793    0.3134   -6.7610 H       1  UNL11       0.0274
      8 H           3.3019   -0.4466   -7.3284 H       1  UNL11       0.0274
      9 C           4.8023    1.1769   -9.7894 C.2     1  UNL11      -0.0881
     10 H           4.5543    2.0119  -10.4391 H       1  UNL11       0.0569
     11 C           5.9327    0.3164  -10.2658 C.3     1  UNL11      -0.0466
     12 H           6.1640   -0.4919   -9.5767 H       1  UNL11       0.0272
     13 H           5.7036   -0.1234  -11.2382 H       1  UNL11       0.0272
     14 H           6.8388    0.9116  -10.3924 H       1  UNL11       0.0272
     15 C           0.1875    4.9368   -5.8902 C.3     1  UNL11      -0.0440
     16 H           0.4541    5.7653   -6.5444 H       1  UNL11       0.0274
     17 H          -0.8172    4.6001   -6.1555 H       1  UNL11       0.0274
     18 H           0.1351    5.3124   -4.8658 H       1  UNL11       0.0274
     19 C           1.1765    3.8088   -5.9963 C.2     1  UNL11      -0.0796
     20 C           0.8786    2.6276   -5.1148 C.3     1  UNL11      -0.0440
     21 H           1.5859    1.8122   -5.2432 H       1  UNL11       0.0274
     22 H           0.8847    2.9231   -4.0632 H       1  UNL11       0.0274
     23 H          -0.1205    2.2419   -5.3284 H       1  UNL11       0.0274
     24 C           2.2342    3.8931   -6.8249 C.2     1  UNL11      -0.0850
     25 H           2.3266    4.7935   -7.4271 H       1  UNL11       0.0572
     26 C           3.2823    2.8478   -7.0665 C.3     1  UNL11      -0.0308
     27 H           4.2573    3.3289   -7.1831 H       1  UNL11       0.0310
     28 H           3.3682    2.1774   -6.2112 H       1  UNL11       0.0310
@<TRIPOS>BOND
     1    10     9    1
     2     3     1    1
     3    13    11    1
     4    14    11    1
     5    25    24    1
     6    16    15    1
     7     9    11    1
     8     9     4    2
     9    11    12    1
    10     1     2    1
    11     1     4    1
    12     1    26    1
    13    17    15    1
    14    24    26    1
    15    24    19    2
    16    15    19    1
    17    15    18    1
    18     4     5    1
    19    27    26    1
    20    26    28    1
    21    19    20    1
    22     5     6    1
    23     5     8    1
    24     5     7    1
    25    23    20    1
    26    20    21    1
    27    20    22    1
