@<TRIPOS>MOLECULE
/home/jramos/PycharmProjects/GeCos/examples/02-IsoP_trueno_openbabel_mp2/02-IsoP_g16_conformers/02-IsoP_025_gaussian.xyz
 28 27 0 0 0
SMALL
GASTEIGER

@<TRIPOS>ATOM
      1 C           2.2398    1.2569   -8.8702 C.3     1  UNL1       -0.0286
      2 H           2.0061    0.2371   -9.1970 H       1  UNL1        0.0313
      3 H           2.0285    1.8894   -9.7406 H       1  UNL1        0.0313
      4 C           3.7186    1.3404   -8.5685 C.2     1  UNL1       -0.0765
      5 C           4.5812    0.9730   -9.7462 C.3     1  UNL1       -0.0438
      6 H           5.6450    1.0116   -9.5294 H       1  UNL1        0.0274
      7 H           4.3438   -0.0369  -10.0874 H       1  UNL1        0.0274
      8 H           4.3835    1.6445  -10.5844 H       1  UNL1        0.0274
      9 C           4.1881    1.7051   -7.3613 C.2     1  UNL1       -0.0881
     10 H           3.4663    1.9464   -6.5894 H       1  UNL1        0.0569
     11 C           5.6187    1.8268   -6.9287 C.3     1  UNL1       -0.0466
     12 H           6.3245    1.5862   -7.7192 H       1  UNL1        0.0272
     13 H           5.8313    2.8426   -6.5905 H       1  UNL1        0.0272
     14 H           5.8226    1.1634   -6.0863 H       1  UNL1        0.0272
     15 C          -2.4379    0.6647   -8.5283 C.3     1  UNL1       -0.0440
     16 H          -2.5841    1.5708   -9.1144 H       1  UNL1        0.0274
     17 H          -2.6461   -0.1952   -9.1690 H       1  UNL1        0.0274
     18 H          -3.1818    0.6507   -7.7284 H       1  UNL1        0.0274
     19 C          -1.0454    0.5889   -7.9651 C.2     1  UNL1       -0.0796
     20 C          -0.7698   -0.6367   -7.1390 C.3     1  UNL1       -0.0440
     21 H           0.2524   -0.6826   -6.7727 H       1  UNL1        0.0274
     22 H          -1.4427   -0.6774   -6.2796 H       1  UNL1        0.0274
     23 H          -0.9564   -1.5368   -7.7286 H       1  UNL1        0.0274
     24 C          -0.1513    1.5662   -8.2056 C.2     1  UNL1       -0.0850
     25 H          -0.4729    2.3923   -8.8352 H       1  UNL1        0.0572
     26 C           1.2744    1.6327   -7.7438 C.3     1  UNL1       -0.0308
     27 H           1.4930    2.6496   -7.4075 H       1  UNL1        0.0310
     28 H           1.4413    0.9794   -6.8871 H       1  UNL1        0.0310
@<TRIPOS>BOND
     1     8     5    1
     2     7     5    1
     3     5     6    1
     4     5     4    1
     5     3     1    1
     6     2     1    1
     7    17    15    1
     8    16    15    1
     9     1     4    1
    10     1    26    1
    11    25    24    1
    12     4     9    2
    13    15    19    1
    14    15    18    1
    15    24    19    2
    16    24    26    1
    17    19    20    1
    18    26    27    1
    19    26    28    1
    20    23    20    1
    21    12    11    1
    22     9    11    1
    23     9    10    1
    24    20    21    1
    25    20    22    1
    26    11    13    1
    27    11    14    1
