@<TRIPOS>MOLECULE
/home/jramos/PycharmProjects/GeCos/examples/02-IsoP_trueno_openbabel_mp2/02-IsoP_g16_conformers/02-IsoP_035_gaussian.xyz
 28 27 0 0 0
SMALL
GASTEIGER

@<TRIPOS>ATOM
      1 C           2.7392    0.6581   -7.4640 C.3     1  UNL11      -0.0286
      2 H           3.1749    0.7592   -6.4673 H       1  UNL11       0.0313
      3 H           2.4194   -0.3839   -7.5761 H       1  UNL11       0.0313
      4 C           3.7796    0.9835   -8.5043 C.2     1  UNL11      -0.0765
      5 C           3.3617    0.7379   -9.9292 C.3     1  UNL11      -0.0438
      6 H           4.1942    0.7871  -10.6264 H       1  UNL11       0.0274
      7 H           2.9061   -0.2499  -10.0220 H       1  UNL11       0.0274
      8 H           2.6139    1.4649  -10.2530 H       1  UNL11       0.0274
      9 C           4.9715    1.4875   -8.1323 C.2     1  UNL11      -0.0881
     10 H           5.1385    1.6199   -7.0670 H       1  UNL11       0.0569
     11 C           6.1136    1.9018   -9.0092 C.3     1  UNL11      -0.0466
     12 H           5.9033    1.7663  -10.0670 H       1  UNL11       0.0272
     13 H           6.3525    2.9552   -8.8518 H       1  UNL11       0.0272
     14 H           7.0137    1.3331   -8.7689 H       1  UNL11       0.0272
     15 C           2.2665    5.2116   -6.3340 C.3     1  UNL11      -0.0440
     16 H           2.5786    5.5156   -7.3319 H       1  UNL11       0.0274
     17 H           1.4533    5.8671   -6.0142 H       1  UNL11       0.0274
     18 H           3.0992    5.3827   -5.6479 H       1  UNL11       0.0274
     19 C           1.8363    3.7709   -6.3056 C.2     1  UNL11      -0.0796
     20 C           1.3910    3.2756   -4.9576 C.3     1  UNL11      -0.0440
     21 H           1.1079    2.2262   -4.9624 H       1  UNL11       0.0274
     22 H           2.1925    3.4036   -4.2267 H       1  UNL11       0.0274
     23 H           0.5399    3.8577   -4.5974 H       1  UNL11       0.0274
     24 C           1.8654    3.0203   -7.4229 C.2     1  UNL11      -0.0850
     25 H           2.2322    3.4927   -8.3296 H       1  UNL11       0.0572
     26 C           1.4998    1.5709   -7.5474 C.3     1  UNL11      -0.0308
     27 H           0.7914    1.2746   -6.7727 H       1  UNL11       0.0310
     28 H           0.9922    1.4070   -8.5013 H       1  UNL11       0.0310
@<TRIPOS>BOND
     1    14    11    1
     2     3     1    1
     3     2     1    1
     4     7     5    1
     5    10     9    1
     6     9    11    1
     7     9     4    2
     8     1     4    1
     9     1    26    1
    10    11    12    1
    11    11    13    1
    12     4     5    1
    13     6     5    1
    14     5     8    1
    15    27    26    1
    16    26    28    1
    17    26    24    1
    18    21    20    1
    19    22    20    1
    20    20    19    1
    21    20    23    1
    22    24    19    2
    23    24    25    1
    24    19    15    1
    25    18    15    1
    26    15    16    1
    27    15    17    1
