@<TRIPOS>MOLECULE
/home/jramos/PycharmProjects/GeCos/examples/02-IsoP_trueno_openbabel_mp2/02-IsoP_g16_conformers/02-IsoP_034_gaussian.xyz
 28 27 0 0 0
SMALL
GASTEIGER

@<TRIPOS>ATOM
      1 C           2.1760    1.1679   -9.0196 C.3     1  UNL1       -0.0286
      2 H           1.8190    0.1544   -9.2231 H       1  UNL1        0.0313
      3 H           1.9489    1.7663   -9.9056 H       1  UNL1        0.0313
      4 C           3.6703    1.1487   -8.7824 C.2     1  UNL1       -0.0765
      5 C           4.2402   -0.1582   -8.3061 C.3     1  UNL1       -0.0438
      6 H           5.3043   -0.1056   -8.0891 H       1  UNL1        0.0274
      7 H           3.7228   -0.4837   -7.4032 H       1  UNL1        0.0274
      8 H           4.0886   -0.9305   -9.0636 H       1  UNL1        0.0274
      9 C           4.3812    2.2737   -8.9888 C.2     1  UNL1       -0.0881
     10 H           3.8341    3.1406   -9.3535 H       1  UNL1        0.0569
     11 C           5.8470    2.4976   -8.7744 C.3     1  UNL1       -0.0466
     12 H           6.3611    1.6047   -8.4281 H       1  UNL1        0.0272
     13 H           6.3281    2.8225   -9.6988 H       1  UNL1        0.0272
     14 H           6.0124    3.2851   -8.0365 H       1  UNL1        0.0272
     15 C           2.4007    0.3297   -4.3178 C.3     1  UNL1       -0.0440
     16 H           1.7714   -0.5478   -4.4596 H       1  UNL1        0.0274
     17 H           3.4260   -0.0071   -4.1476 H       1  UNL1        0.0274
     18 H           2.0794    0.8375   -3.4055 H       1  UNL1        0.0274
     19 C           2.3321    1.2582   -5.4995 C.2     1  UNL1       -0.0796
     20 C           3.1722    2.4979   -5.3697 C.3     1  UNL1       -0.0440
     21 H           3.1364    3.1293   -6.2525 H       1  UNL1        0.0274
     22 H           2.8549    3.0854   -4.5048 H       1  UNL1        0.0274
     23 H           4.2160    2.2236   -5.2011 H       1  UNL1        0.0274
     24 C           1.5683    0.9546   -6.5667 C.2     1  UNL1       -0.0850
     25 H           1.0251    0.0125   -6.5372 H       1  UNL1        0.0572
     26 C           1.3948    1.7503   -7.8249 C.3     1  UNL1       -0.0308
     27 H           0.3317    1.7792   -8.0833 H       1  UNL1        0.0310
     28 H           1.7092    2.7844   -7.6811 H       1  UNL1        0.0310
@<TRIPOS>BOND
     1     3     1    1
     2    13    11    1
     3    10     9    1
     4     2     1    1
     5     8     5    1
     6     1     4    1
     7     1    26    1
     8     9     4    2
     9     9    11    1
    10     4     5    1
    11    11    12    1
    12    11    14    1
    13     5     6    1
    14     5     7    1
    15    27    26    1
    16    26    28    1
    17    26    24    1
    18    24    25    1
    19    24    19    2
    20    21    20    1
    21    19    20    1
    22    19    15    1
    23    20    23    1
    24    20    22    1
    25    16    15    1
    26    15    17    1
    27    15    18    1
