@<TRIPOS>MOLECULE
/home/jramos/PycharmProjects/GeCos/examples/02-IsoP_trueno_openbabel_mp2/02-IsoP_g16_conformers/02-IsoP_025_gaussian.xyz
 28 27 0 0 0
SMALL
GASTEIGER

@<TRIPOS>ATOM
      1 C           2.7420    1.4519   -7.9687 C.3     1  UNL11      -0.0286
      2 H           2.5860    1.0412   -6.9645 H       1  UNL11       0.0313
      3 H           1.8367    1.1869   -8.5276 H       1  UNL11       0.0313
      4 C           3.9175    0.7440   -8.6026 C.2     1  UNL11      -0.0765
      5 C           3.7313   -0.7475   -8.6858 C.3     1  UNL11      -0.0438
      6 H           4.5816   -1.2639   -9.1222 H       1  UNL11       0.0274
      7 H           3.5602   -1.1626   -7.6903 H       1  UNL11       0.0274
      8 H           2.8491   -0.9861   -9.2836 H       1  UNL11       0.0274
      9 C           5.0074    1.4036   -9.0360 C.2     1  UNL11      -0.0881
     10 H           5.0258    2.4813   -8.9207 H       1  UNL11       0.0569
     11 C           6.2358    0.8301   -9.6769 C.3     1  UNL11      -0.0466
     12 H           6.1933   -0.2501   -9.7879 H       1  UNL11       0.0272
     13 H           6.3869    1.2609  -10.6684 H       1  UNL11       0.0272
     14 H           7.1233    1.0703   -9.0887 H       1  UNL11       0.0272
     15 C           0.0240    4.4871   -5.5711 C.3     1  UNL11      -0.0440
     16 H          -0.6975    4.4676   -6.3866 H       1  UNL11       0.0274
     17 H          -0.3757    3.8936   -4.7457 H       1  UNL11       0.0274
     18 H           0.1058    5.5152   -5.2110 H       1  UNL11       0.0274
     19 C           1.3653    3.9645   -6.0067 C.2     1  UNL11      -0.0796
     20 C           2.4165    3.9643   -4.9318 C.3     1  UNL11      -0.0440
     21 H           3.3653    3.5511   -5.2639 H       1  UNL11       0.0274
     22 H           2.5940    4.9798   -4.5708 H       1  UNL11       0.0274
     23 H           2.0768    3.3795   -4.0744 H       1  UNL11       0.0274
     24 C           1.5632    3.5441   -7.2702 C.2     1  UNL11      -0.0850
     25 H           0.7127    3.5804   -7.9467 H       1  UNL11       0.0572
     26 C           2.8217    2.9761   -7.8565 C.3     1  UNL11      -0.0308
     27 H           2.9752    3.4020   -8.8515 H       1  UNL11       0.0310
     28 H           3.6926    3.2531   -7.2621 H       1  UNL11       0.0310
@<TRIPOS>BOND
     1     8     5    1
     2     7     5    1
     3     5     6    1
     4     5     4    1
     5     3     1    1
     6     2     1    1
     7    17    15    1
     8    16    15    1
     9     1     4    1
    10     1    26    1
    11    25    24    1
    12     4     9    2
    13    15    19    1
    14    15    18    1
    15    24    19    2
    16    24    26    1
    17    19    20    1
    18    26    27    1
    19    26    28    1
    20    23    20    1
    21    12    11    1
    22     9    11    1
    23     9    10    1
    24    20    21    1
    25    20    22    1
    26    11    13    1
    27    11    14    1
