@<TRIPOS>MOLECULE
/home/jramos/PycharmProjects/GeCos/examples/02-IsoP_trueno_openbabel_mp2/02-IsoP_g16_conformers/02-IsoP_013_gaussian.xyz
 28 27 0 0 0
SMALL
GASTEIGER

@<TRIPOS>ATOM
      1 C           2.1895    1.1670   -8.9415 C.3     1  UNL11      -0.0286
      2 H           1.5754    0.3402   -8.5736 H       1  UNL11       0.0313
      3 H           2.2336    1.0678  -10.0291 H       1  UNL11       0.0313
      4 C           3.5833    1.0703   -8.3604 C.2     1  UNL11      -0.0765
      5 C           3.6999    0.3229   -7.0614 C.3     1  UNL11      -0.0438
      6 H           4.7071    0.3340   -6.6519 H       1  UNL11       0.0274
      7 H           3.0252    0.7538   -6.3212 H       1  UNL11       0.0274
      8 H           3.4049   -0.7195   -7.2019 H       1  UNL11       0.0274
      9 C           4.6067    1.6558   -9.0111 C.2     1  UNL11      -0.0881
     10 H           4.3732    2.1465   -9.9536 H       1  UNL11       0.0569
     11 C           6.0462    1.7287   -8.6019 C.3     1  UNL11      -0.0466
     12 H           6.2421    1.2136   -7.6650 H       1  UNL11       0.0272
     13 H           6.6886    1.2878   -9.3662 H       1  UNL11       0.0272
     14 H           6.3605    2.7676   -8.4834 H       1  UNL11       0.0272
     15 C           1.7018    3.5803   -4.8430 C.3     1  UNL11      -0.0440
     16 H           0.8620    2.9379   -4.5824 H       1  UNL11       0.0274
     17 H           2.5636    3.2790   -4.2429 H       1  UNL11       0.0274
     18 H           1.4544    4.6030   -4.5496 H       1  UNL11       0.0274
     19 C           2.0211    3.5072   -6.3114 C.2     1  UNL11      -0.0796
     20 C           3.1682    4.3764   -6.7453 C.3     1  UNL11      -0.0440
     21 H           3.4027    4.2741   -7.8008 H       1  UNL11       0.0274
     22 H           2.9529    5.4265   -6.5337 H       1  UNL11       0.0274
     23 H           4.0661    4.1165   -6.1801 H       1  UNL11       0.0274
     24 C           1.3098    2.7071   -7.1289 C.2     1  UNL11      -0.0850
     25 H           0.5163    2.1151   -6.6778 H       1  UNL11       0.0572
     26 C           1.4982    2.5024   -8.6016 C.3     1  UNL11      -0.0308
     27 H           0.5197    2.5239   -9.0914 H       1  UNL11       0.0310
     28 H           2.0835    3.3122   -9.0381 H       1  UNL11       0.0310
@<TRIPOS>BOND
     1     3     1    1
     2    10     9    1
     3     2     1    1
     4     1     4    1
     5     1    26    1
     6    13    11    1
     7     9     4    2
     8     9    11    1
     9    27    26    1
    10     4     5    1
    11     8     5    1
    12    11    12    1
    13    11    14    1
    14    26    28    1
    15    26    24    1
    16     5     6    1
    17     5     7    1
    18    24    25    1
    19    24    19    2
    20    21    20    1
    21    19    20    1
    22    19    15    1
    23    20    23    1
    24    20    22    1
    25    16    15    1
    26    15    17    1
    27    15    18    1
