@<TRIPOS>MOLECULE
/home/jramos/PycharmProjects/GeCos/examples/02-IsoP_trueno_openbabel_mp2/02-IsoP_g16_conformers/02-IsoP_014_gaussian.xyz
 28 27 0 0 0
SMALL
GASTEIGER

@<TRIPOS>ATOM
      1 C           2.1803    1.4500   -9.1873 C.3     1  UNL1       -0.0286
      2 H           1.9713    0.4662   -9.6150 H       1  UNL1        0.0313
      3 H           2.1651    2.1641  -10.0156 H       1  UNL1        0.0313
      4 C           3.5461    1.4470   -8.5361 C.2     1  UNL1       -0.0765
      5 C           4.3535    2.7037   -8.7040 C.3     1  UNL1       -0.0438
      6 H           5.2987    2.6785   -8.1672 H       1  UNL1        0.0274
      7 H           4.5712    2.8697   -9.7616 H       1  UNL1        0.0274
      8 H           3.7830    3.5634   -8.3517 H       1  UNL1        0.0274
      9 C           3.9424    0.3583   -7.8496 C.2     1  UNL1       -0.0881
     10 H           3.2572   -0.4867   -7.8302 H       1  UNL1        0.0569
     11 C           5.2185    0.1529   -7.0917 C.3     1  UNL1       -0.0466
     12 H           5.8816    1.0124   -7.1468 H       1  UNL1        0.0272
     13 H           5.0128   -0.0427   -6.0374 H       1  UNL1        0.0272
     14 H           5.7613   -0.7129   -7.4753 H       1  UNL1        0.0272
     15 C           1.7171    4.9360   -5.9478 C.3     1  UNL1       -0.0440
     16 H           1.3957    5.6096   -6.7409 H       1  UNL1        0.0274
     17 H           1.0977    5.1235   -5.0677 H       1  UNL1        0.0274
     18 H           2.7426    5.1937   -5.6732 H       1  UNL1        0.0274
     19 C           1.6228    3.4956   -6.3715 C.2     1  UNL1       -0.0796
     20 C           2.0441    2.5064   -5.3209 C.3     1  UNL1       -0.0440
     21 H           2.0060    1.4777   -5.6669 H       1  UNL1        0.0274
     22 H           3.0698    2.7122   -5.0068 H       1  UNL1        0.0274
     23 H           1.4151    2.6016   -4.4327 H       1  UNL1        0.0274
     24 C           1.1943    3.1706   -7.6065 C.2     1  UNL1       -0.0850
     25 H           0.9390    3.9897   -8.2754 H       1  UNL1        0.0572
     26 C           1.0529    1.7998   -8.1957 C.3     1  UNL1       -0.0308
     27 H           1.0338    1.0381   -7.4158 H       1  UNL1        0.0310
     28 H           0.0942    1.7356   -8.7198 H       1  UNL1        0.0310
@<TRIPOS>BOND
     1     3     1    1
     2     7     5    1
     3     2     1    1
     4     1     4    1
     5     1    26    1
     6    28    26    1
     7     5     4    1
     8     5     8    1
     9     5     6    1
    10     4     9    2
    11    25    24    1
    12    26    24    1
    13    26    27    1
    14     9    10    1
    15     9    11    1
    16    24    19    2
    17    14    11    1
    18    12    11    1
    19    11    13    1
    20    16    15    1
    21    19    15    1
    22    19    20    1
    23    15    18    1
    24    15    17    1
    25    21    20    1
    26    20    22    1
    27    20    23    1
