@<TRIPOS>MOLECULE
/home/jramos/PycharmProjects/GeCos/examples/02-IsoP_trueno_openbabel_mp2/02-IsoP_g16_conformers/02-IsoP_039_gaussian.xyz
 28 27 0 0 0
SMALL
GASTEIGER

@<TRIPOS>ATOM
      1 C           2.2456    1.4083   -8.8463 C.3     1  UNL1       -0.0286
      2 H           1.9350    0.4172   -9.1941 H       1  UNL1        0.0313
      3 H           2.0947    2.0814   -9.6993 H       1  UNL1        0.0313
      4 C           3.7263    1.3550   -8.5409 C.2     1  UNL1       -0.0765
      5 C           4.5147    0.6189   -9.5905 C.3     1  UNL1       -0.0438
      6 H           5.5901    0.6979   -9.4570 H       1  UNL1        0.0274
      7 H           4.2491   -0.4406   -9.5919 H       1  UNL1        0.0274
      8 H           4.2713    1.0077  -10.5816 H       1  UNL1        0.0274
      9 C           4.2647    1.9406   -7.4560 C.2     1  UNL1       -0.0881
     10 H           3.5963    2.4546   -6.7746 H       1  UNL1        0.0569
     11 C           5.7083    1.9805   -7.0528 C.3     1  UNL1       -0.0466
     12 H           6.3537    1.4285   -7.7306 H       1  UNL1        0.0272
     13 H           6.0688    3.0101   -7.0103 H       1  UNL1        0.0272
     14 H           5.8374    1.5583   -6.0546 H       1  UNL1        0.0272
     15 C           0.6043   -1.1621   -5.2646 C.3     1  UNL1       -0.0440
     16 H           1.4001   -0.8505   -4.5897 H       1  UNL1        0.0274
     17 H          -0.3302   -1.1971   -4.6998 H       1  UNL1        0.0274
     18 H           0.8140   -2.1827   -5.5928 H       1  UNL1        0.0274
     19 C           0.4844   -0.2339   -6.4416 C.2     1  UNL1       -0.0796
     20 C          -0.5960   -0.5999   -7.4213 C.3     1  UNL1       -0.0440
     21 H          -0.6560    0.0845   -8.2637 H       1  UNL1        0.0274
     22 H          -0.4228   -1.6034   -7.8162 H       1  UNL1        0.0274
     23 H          -1.5698   -0.6195   -6.9268 H       1  UNL1        0.0274
     24 C           1.3043    0.8263   -6.5711 C.2     1  UNL1       -0.0850
     25 H           2.0574    0.9668   -5.8031 H       1  UNL1        0.0572
     26 C           1.3083    1.8151   -7.7030 C.3     1  UNL1       -0.0308
     27 H           0.3035    1.9261   -8.1136 H       1  UNL1        0.0310
     28 H           1.5862    2.8033   -7.3297 H       1  UNL1        0.0310
@<TRIPOS>BOND
     1     8     5    1
     2     3     1    1
     3     7     5    1
     4     5     6    1
     5     5     4    1
     6     2     1    1
     7     1     4    1
     8     1    26    1
     9     4     9    2
    10    21    20    1
    11    27    26    1
    12    22    20    1
    13    12    11    1
    14    26    28    1
    15    26    24    1
    16     9    11    1
    17     9    10    1
    18    20    23    1
    19    20    19    1
    20    11    13    1
    21    11    14    1
    22    24    19    2
    23    24    25    1
    24    19    15    1
    25    18    15    1
    26    15    17    1
    27    15    16    1
