@<TRIPOS>MOLECULE
/home/jramos/PycharmProjects/GeCos/examples/02-IsoP_trueno_openbabel_mp2/02-IsoP_g16_conformers/02-IsoP_006_gaussian.xyz
 28 27 0 0 0
SMALL
GASTEIGER

@<TRIPOS>ATOM
      1 C           2.1703    1.2240   -8.6833 C.3     1  UNL1       -0.0286
      2 H           1.7468    0.2335   -8.4988 H       1  UNL1        0.0313
      3 H           1.9878    1.4542   -9.7386 H       1  UNL1        0.0313
      4 C           3.6518    1.2046   -8.4096 C.2     1  UNL1       -0.0765
      5 C           4.3877    2.4724   -8.7550 C.3     1  UNL1       -0.0438
      6 H           5.4646    2.3321   -8.8035 H       1  UNL1        0.0274
      7 H           4.0561    2.8436   -9.7267 H       1  UNL1        0.0274
      8 H           4.1872    3.2599   -8.0261 H       1  UNL1        0.0274
      9 C           4.2246    0.1145   -7.8651 C.2     1  UNL1       -0.0881
     10 H           3.5779   -0.7358   -7.6659 H       1  UNL1        0.0569
     11 C           5.6625   -0.0808   -7.4917 C.3     1  UNL1       -0.0466
     12 H           6.2698    0.7995   -7.6860 H       1  UNL1        0.0272
     13 H           5.7527   -0.3163   -6.4298 H       1  UNL1        0.0272
     14 H           6.0964   -0.9188   -8.0404 H       1  UNL1        0.0272
     15 C          -2.2880    2.7364   -9.0230 C.3     1  UNL1       -0.0440
     16 H          -2.6305    1.9049   -8.4089 H       1  UNL1        0.0274
     17 H          -2.8472    3.6290   -8.7334 H       1  UNL1        0.0274
     18 H          -2.5471    2.5241  -10.0627 H       1  UNL1        0.0274
     19 C          -0.8084    2.9605   -8.8741 C.2     1  UNL1       -0.0796
     20 C          -0.2606    4.0991   -9.6893 C.3     1  UNL1       -0.0440
     21 H           0.8164    4.2110   -9.5931 H       1  UNL1        0.0274
     22 H          -0.4893    3.9484  -10.7464 H       1  UNL1        0.0274
     23 H          -0.7298    5.0409   -9.3959 H       1  UNL1        0.0274
     24 C          -0.0703    2.1824   -8.0603 C.2     1  UNL1       -0.0850
     25 H          -0.5819    1.3762   -7.5405 H       1  UNL1        0.0572
     26 C           1.4102    2.2574   -7.8318 C.3     1  UNL1       -0.0308
     27 H           1.7867    3.2582   -8.0442 H       1  UNL1        0.0310
     28 H           1.6272    2.0610   -6.7782 H       1  UNL1        0.0310
@<TRIPOS>BOND
     1    22    20    1
     2    18    15    1
     3     3     1    1
     4     7     5    1
     5    20    21    1
     6    20    23    1
     7    20    19    1
     8    15    19    1
     9    15    17    1
    10    15    16    1
    11    19    24    2
    12     6     5    1
    13     5     4    1
    14     5     8    1
    15     1     2    1
    16     1     4    1
    17     1    26    1
    18     4     9    2
    19    24    26    1
    20    24    25    1
    21    27    26    1
    22    14    11    1
    23     9    10    1
    24     9    11    1
    25    26    28    1
    26    12    11    1
    27    11    13    1
