@<TRIPOS>MOLECULE
/home/jramos/PycharmProjects/GeCos/examples/02-IsoP_trueno_openbabel_mp2/02-IsoP_g16_conformers/02-IsoP_006_gaussian.xyz
 28 27 0 0 0
SMALL
GASTEIGER

@<TRIPOS>ATOM
      1 C           3.7064    2.4031   -7.8979 C.3     1  UNL11      -0.0286
      2 H           3.9299    3.2771   -8.5149 H       1  UNL11       0.0313
      3 H           4.1314    2.5984   -6.9074 H       1  UNL11       0.0313
      4 C           4.3443    1.1776   -8.4990 C.2     1  UNL11      -0.0765
      5 C           4.2302   -0.0782   -7.6755 C.3     1  UNL11      -0.0438
      6 H           4.9194   -0.8548   -7.9975 H       1  UNL11       0.0274
      7 H           4.4426    0.1421   -6.6275 H       1  UNL11       0.0274
      8 H           3.2205   -0.4911   -7.7175 H       1  UNL11       0.0274
      9 C           4.9370    1.2468   -9.7060 C.2     1  UNL11      -0.0881
     10 H           4.9514    2.2175  -10.1942 H       1  UNL11       0.0569
     11 C           5.5900    0.1397  -10.4760 C.3     1  UNL11      -0.0466
     12 H           5.5344   -0.8174   -9.9638 H       1  UNL11       0.0272
     13 H           5.1143    0.0204  -11.4511 H       1  UNL11       0.0272
     14 H           6.6423    0.3631  -10.6617 H       1  UNL11       0.0272
     15 C           0.6564    5.1786   -5.6016 C.3     1  UNL11      -0.0440
     16 H           0.5661    5.8234   -6.4744 H       1  UNL11       0.0274
     17 H          -0.3337    5.0688   -5.1532 H       1  UNL11       0.0274
     18 H           1.2832    5.6853   -4.8644 H       1  UNL11       0.0274
     19 C           1.2315    3.8369   -5.9630 C.2     1  UNL11      -0.0796
     20 C           1.3815    2.8861   -4.8078 C.3     1  UNL11      -0.0440
     21 H           1.8370    1.9408   -5.0918 H       1  UNL11       0.0274
     22 H           2.0003    3.3362   -4.0287 H       1  UNL11       0.0274
     23 H           0.4094    2.6753   -4.3564 H       1  UNL11       0.0274
     24 C           1.5680    3.5493   -7.2345 C.2     1  UNL11      -0.0850
     25 H           1.4309    4.3316   -7.9768 H       1  UNL11       0.0572
     26 C           2.1794    2.2784   -7.7451 C.3     1  UNL11      -0.0308
     27 H           1.9420    1.4410   -7.0886 H       1  UNL11       0.0310
     28 H           1.7547    2.0364   -8.7232 H       1  UNL11       0.0310
@<TRIPOS>BOND
     1    22    20    1
     2    18    15    1
     3     3     1    1
     4     7     5    1
     5    20    21    1
     6    20    23    1
     7    20    19    1
     8    15    19    1
     9    15    17    1
    10    15    16    1
    11    19    24    2
    12     6     5    1
    13     5     4    1
    14     5     8    1
    15     1     2    1
    16     1     4    1
    17     1    26    1
    18     4     9    2
    19    24    26    1
    20    24    25    1
    21    27    26    1
    22    14    11    1
    23     9    10    1
    24     9    11    1
    25    26    28    1
    26    12    11    1
    27    11    13    1
