@<TRIPOS>MOLECULE
/home/jramos/PycharmProjects/GeCos/examples/02-IsoP_trueno_openbabel_mp2/02-IsoP_g16_conformers/02-IsoP_020_gaussian.xyz
 28 27 0 0 0
SMALL
GASTEIGER

@<TRIPOS>ATOM
      1 C           2.4201    1.0067   -8.2564 C.3     1  UNL11      -0.0286
      2 H           2.1660    0.5138   -7.3139 H       1  UNL11       0.0313
      3 H           2.0218    0.3835   -9.0614 H       1  UNL11       0.0313
      4 C           3.9239    1.1132   -8.3867 C.2     1  UNL11      -0.0765
      5 C           4.6896    1.1142   -7.0920 C.3     1  UNL11      -0.0438
      6 H           5.7480    1.3270   -7.2216 H       1  UNL11       0.0274
      7 H           4.2715    1.8537   -6.4087 H       1  UNL11       0.0274
      8 H           4.5986    0.1411   -6.6038 H       1  UNL11       0.0274
      9 C           4.4749    1.2048   -9.6119 C.2     1  UNL11      -0.0881
     10 H           3.7952    1.1683  -10.4603 H       1  UNL11       0.0569
     11 C           5.9230    1.3501   -9.9685 C.3     1  UNL11      -0.0466
     12 H           6.5684    1.3851   -9.0948 H       1  UNL11       0.0272
     13 H           6.2519    0.5169  -10.5924 H       1  UNL11       0.0272
     14 H           6.0894    2.2623  -10.5446 H       1  UNL11       0.0272
     15 C           2.3256    4.5815   -5.1253 C.3     1  UNL11      -0.0440
     16 H           3.2214    5.0221   -5.5605 H       1  UNL11       0.0274
     17 H           1.6312    5.3886   -4.8807 H       1  UNL11       0.0274
     18 H           2.6012    4.1048   -4.1819 H       1  UNL11       0.0274
     19 C           1.6872    3.5916   -6.0605 C.2     1  UNL11      -0.0796
     20 C           0.4409    2.9388   -5.5307 C.3     1  UNL11      -0.0440
     21 H           0.0173    2.2122   -6.2192 H       1  UNL11       0.0274
     22 H           0.6556    2.4253   -4.5909 H       1  UNL11       0.0274
     23 H          -0.3219    3.6896   -5.3128 H       1  UNL11       0.0274
     24 C           2.2232    3.3399   -7.2703 C.2     1  UNL11      -0.0850
     25 H           3.1381    3.8648   -7.5303 H       1  UNL11       0.0572
     26 C           1.7163    2.3773   -8.3041 C.3     1  UNL11      -0.0308
     27 H           0.6393    2.2285   -8.2061 H       1  UNL11       0.0310
     28 H           1.8840    2.8061   -9.2955 H       1  UNL11       0.0310
@<TRIPOS>BOND
     1     3     1    1
     2    13    11    1
     3     2     1    1
     4     8     5    1
     5    10     9    1
     6     1     4    1
     7     1    26    1
     8     9     4    2
     9     9    11    1
    10     4     5    1
    11    11    12    1
    12    11    14    1
    13     5     6    1
    14     5     7    1
    15    27    26    1
    16    26    28    1
    17    26    24    1
    18    21    20    1
    19    22    20    1
    20    20    19    1
    21    20    23    1
    22    24    19    2
    23    24    25    1
    24    19    15    1
    25    18    15    1
    26    15    16    1
    27    15    17    1
