@<TRIPOS>MOLECULE
/home/jramos/PycharmProjects/GeCos/examples/02-IsoP_trueno_openbabel_mp2/02-IsoP_g16_conformers/02-IsoP_042_gaussian.xyz
 28 27 0 0 0
SMALL
GASTEIGER

@<TRIPOS>ATOM
      1 C           2.2862    1.4454   -8.7805 C.3     1  UNL11      -0.0286
      2 H           1.7792    0.7278   -9.4356 H       1  UNL11       0.0313
      3 H           2.2151    2.4263   -9.2559 H       1  UNL11       0.0313
      4 C           3.7356    1.0603   -8.6333 C.2     1  UNL11      -0.0765
      5 C           3.9811   -0.3373   -8.1316 C.3     1  UNL11      -0.0438
      6 H           5.0189   -0.6443   -8.2324 H       1  UNL11       0.0274
      7 H           3.7072   -0.4333   -7.0788 H       1  UNL11       0.0274
      8 H           3.3665   -1.0489   -8.6863 H       1  UNL11       0.0274
      9 C           4.7029    1.9539   -8.9135 C.2     1  UNL11      -0.0881
     10 H           4.3830    2.9318   -9.2623 H       1  UNL11       0.0569
     11 C           6.1863    1.7756   -8.8002 C.3     1  UNL11      -0.0466
     12 H           6.4657    0.7901   -8.4364 H       1  UNL11       0.0272
     13 H           6.6705    1.9280   -9.7665 H       1  UNL11       0.0272
     14 H           6.6078    2.5131   -8.1146 H       1  UNL11       0.0272
     15 C           2.6316    4.5773   -5.2720 C.3     1  UNL11      -0.0440
     16 H           3.4446    4.0129   -4.8179 H       1  UNL11       0.0274
     17 H           3.0571    5.4542   -5.7652 H       1  UNL11       0.0274
     18 H           1.9829    4.9466   -4.4744 H       1  UNL11       0.0274
     19 C           1.8553    3.7372   -6.2484 C.2     1  UNL11      -0.0796
     20 C           0.7138    4.4493   -6.9196 C.3     1  UNL11      -0.0440
     21 H           0.1855    3.8252   -7.6358 H       1  UNL11       0.0274
     22 H          -0.0061    4.8032   -6.1783 H       1  UNL11       0.0274
     23 H           1.0804    5.3313   -7.4493 H       1  UNL11       0.0274
     24 C           2.1924    2.4536   -6.4741 C.2     1  UNL11      -0.0850
     25 H           3.0556    2.0654   -5.9412 H       1  UNL11       0.0572
     26 C           1.5395    1.5029   -7.4333 C.3     1  UNL11      -0.0308
     27 H           1.5128    0.5041   -6.9902 H       1  UNL11       0.0310
     28 H           0.5007    1.7800   -7.6178 H       1  UNL11       0.0310
@<TRIPOS>BOND
     1    23    20    1
     2     3     1    1
     3    21    20    1
     4     2     1    1
     5    10     9    1
     6    20    22    1
     7    20    19    1
     8     1     4    1
     9     1    26    1
    10    28    26    1
    11    13    11    1
    12     9     4    2
    13     9    11    1
    14     4     5    1
    15    26    24    1
    16    26    27    1
    17    19    24    2
    18    19    15    1
    19    17    15    1
    20    11    14    1
    21    11    12    1
    22     8     5    1
    23    24    25    1
    24    15    18    1
    25    15    16    1
    26     5     6    1
    27     5     7    1
