@<TRIPOS>MOLECULE
/home/jramos/PycharmProjects/GeCos/examples/02-IsoP_trueno_openbabel_mp2/02-IsoP_g16_conformers/02-IsoP_002_gaussian.xyz
 28 27 0 0 0
SMALL
GASTEIGER

@<TRIPOS>ATOM
      1 C           2.9658    2.1084   -8.5054 C.3     1  UNL11      -0.0286
      2 H           2.2137    2.1680   -9.3000 H       1  UNL11       0.0313
      3 H           3.4560    3.0837   -8.4607 H       1  UNL11       0.0313
      4 C           3.9756    1.0404   -8.8382 C.2     1  UNL11      -0.0765
      5 C           3.4094   -0.3326   -9.0875 C.3     1  UNL11      -0.0438
      6 H           4.1185   -0.9952   -9.5773 H       1  UNL11       0.0274
      7 H           3.0965   -0.8095   -8.1569 H       1  UNL11       0.0274
      8 H           2.5252   -0.2621   -9.7237 H       1  UNL11       0.0274
      9 C           5.2879    1.3407   -8.8661 C.2     1  UNL11      -0.0881
     10 H           5.5623    2.3737   -8.6699 H       1  UNL11       0.0569
     11 C           6.4381    0.4196   -9.1384 C.3     1  UNL11      -0.0466
     12 H           6.1231   -0.6072   -9.3051 H       1  UNL11       0.0272
     13 H           6.9999    0.7476  -10.0149 H       1  UNL11       0.0272
     14 H           7.1341    0.4189   -8.2975 H       1  UNL11       0.0272
     15 C           0.2779    4.9968   -5.8843 C.3     1  UNL11      -0.0440
     16 H          -0.5800    4.7537   -6.5095 H       1  UNL11       0.0274
     17 H          -0.0582    5.0464   -4.8461 H       1  UNL11       0.0274
     18 H           0.6251    5.9972   -6.1526 H       1  UNL11       0.0274
     19 C           1.3809    3.9865   -6.0416 C.2     1  UNL11      -0.0796
     20 C           2.6011    4.2560   -5.2054 C.3     1  UNL11      -0.0440
     21 H           3.3950    3.5313   -5.3653 H       1  UNL11       0.0274
     22 H           2.9998    5.2472   -5.4315 H       1  UNL11       0.0274
     23 H           2.3450    4.2537   -4.1436 H       1  UNL11       0.0274
     24 C           1.2409    2.9374   -6.8737 C.2     1  UNL11      -0.0850
     25 H           0.3132    2.8685   -7.4369 H       1  UNL11       0.0572
     26 C           2.2471    1.8649   -7.1659 C.3     1  UNL11      -0.0308
     27 H           2.9973    1.7931   -6.3772 H       1  UNL11       0.0310
     28 H           1.7369    0.8988   -7.1977 H       1  UNL11       0.0310
@<TRIPOS>BOND
     1    18    15    1
     2     3     1    1
     3    10     9    1
     4    22    20    1
     5    13    11    1
     6     2     1    1
     7    16    15    1
     8    15    19    1
     9    15    17    1
    10     1     4    1
    11     1    26    1
    12     9    11    1
    13     9     4    2
    14    19    20    1
    15    19    24    2
    16    11    14    1
    17    11    12    1
    18    20    21    1
    19    20    23    1
    20    25    24    1
    21     4     5    1
    22    24    26    1
    23    26    27    1
    24    26    28    1
    25     8     5    1
    26     5     6    1
    27     5     7    1
