@<TRIPOS>MOLECULE
/home/jramos/PycharmProjects/GeCos/examples/02-IsoP_trueno_openbabel_mp2/02-IsoP_g16_conformers/02-IsoP_031_gaussian.xyz
 28 27 0 0 0
SMALL
GASTEIGER

@<TRIPOS>ATOM
      1 C           2.1246    0.8482   -8.5153 C.3     1  UNL11      -0.0286
      2 H           1.7184    0.1156   -7.8073 H       1  UNL11       0.0313
      3 H           1.8024    0.4995   -9.5034 H       1  UNL11       0.0313
      4 C           3.6335    0.7722   -8.4615 C.2     1  UNL11      -0.0765
      5 C           4.1558   -0.6297   -8.6275 C.3     1  UNL11      -0.0438
      6 H           5.2406   -0.6846   -8.6517 H       1  UNL11       0.0274
      7 H           3.8049   -1.2643   -7.8106 H       1  UNL11       0.0274
      8 H           3.7768   -1.0679   -9.5533 H       1  UNL11       0.0274
      9 C           4.4066    1.8619   -8.3041 C.2     1  UNL11      -0.0881
     10 H           3.9117    2.8165   -8.1786 H       1  UNL11       0.0569
     11 C           5.9035    1.9283   -8.2532 C.3     1  UNL11      -0.0466
     12 H           6.3789    0.9599   -8.3846 H       1  UNL11       0.0272
     13 H           6.2840    2.5947   -9.0296 H       1  UNL11       0.0272
     14 H           6.2353    2.3355   -7.2962 H       1  UNL11       0.0272
     15 C           2.1238    4.1006   -4.8621 C.3     1  UNL11      -0.0440
     16 H           1.8780    3.2099   -4.2859 H       1  UNL11       0.0274
     17 H           3.1375    4.4103   -4.5974 H       1  UNL11       0.0274
     18 H           1.4551    4.9061   -4.5502 H       1  UNL11       0.0274
     19 C           2.0110    3.8508   -6.3410 C.2     1  UNL11      -0.0796
     20 C           2.3413    5.0387   -7.2012 C.3     1  UNL11      -0.0440
     21 H           2.2391    4.8379   -8.2645 H       1  UNL11       0.0274
     22 H           1.6875    5.8783   -6.9550 H       1  UNL11       0.0274
     23 H           3.3651    5.3706   -7.0132 H       1  UNL11       0.0274
     24 C           1.6485    2.6415   -6.8074 C.2     1  UNL11      -0.0850
     25 H           1.4344    1.8689   -6.0717 H       1  UNL11       0.0572
     26 C           1.4760    2.2057   -8.2332 C.3     1  UNL11      -0.0308
     27 H           0.4068    2.1102   -8.4504 H       1  UNL11       0.0310
     28 H           1.8626    2.9482   -8.9315 H       1  UNL11       0.0310
@<TRIPOS>BOND
     1     8     5    1
     2     3     1    1
     3     7     5    1
     4     5     6    1
     5     5     4    1
     6     2     1    1
     7     1     4    1
     8     1    26    1
     9    27    26    1
    10     4     9    2
    11    26    28    1
    12    26    24    1
    13    12    11    1
    14     9    11    1
    15     9    10    1
    16    25    24    1
    17    24    19    2
    18    11    13    1
    19    11    14    1
    20    21    20    1
    21    19    20    1
    22    19    15    1
    23    20    22    1
    24    20    23    1
    25    16    15    1
    26    15    18    1
    27    15    17    1
