@<TRIPOS>MOLECULE
/home/jramos/PycharmProjects/GeCos/examples/02-IsoP_trueno_openbabel_mp2/02-IsoP_g16_conformers/02-IsoP_036_gaussian.xyz
 28 27 0 0 0
SMALL
GASTEIGER

@<TRIPOS>ATOM
      1 C           2.2292    0.5087   -7.9096 C.3     1  UNL11      -0.0286
      2 H           2.3121    0.0156   -6.9381 H       1  UNL11       0.0313
      3 H           1.8710   -0.2423   -8.6209 H       1  UNL11       0.0313
      4 C           3.5776    1.0195   -8.3464 C.2     1  UNL11      -0.0765
      5 C           3.7261    1.2338   -9.8282 C.3     1  UNL11      -0.0438
      6 H           4.6414    1.7558  -10.0949 H       1  UNL11       0.0274
      7 H           3.7181    0.2755  -10.3523 H       1  UNL11       0.0274
      8 H           2.8882    1.8140  -10.2196 H       1  UNL11       0.0274
      9 C           4.5323    1.2718   -7.4307 C.2     1  UNL11      -0.0881
     10 H           4.2861    1.0590   -6.3943 H       1  UNL11       0.0569
     11 C           5.9075    1.8218   -7.6566 C.3     1  UNL11      -0.0466
     12 H           6.1191    2.0095   -8.7063 H       1  UNL11       0.0272
     13 H           6.0389    2.7608   -7.1149 H       1  UNL11       0.0272
     14 H           6.6661    1.1318   -7.2825 H       1  UNL11       0.0272
     15 C           2.3940    4.4858   -5.4030 C.3     1  UNL11      -0.0440
     16 H           1.9877    3.9710   -4.5336 H       1  UNL11       0.0274
     17 H           3.4668    4.6242   -5.2483 H       1  UNL11       0.0274
     18 H           1.9500    5.4828   -5.4497 H       1  UNL11       0.0274
     19 C           2.1338    3.7208   -6.6713 C.2     1  UNL11      -0.0796
     20 C           2.6735    4.3672   -7.9157 C.3     1  UNL11      -0.0440
     21 H           2.4217    3.8198   -8.8197 H       1  UNL11       0.0274
     22 H           2.2914    5.3861   -8.0125 H       1  UNL11       0.0274
     23 H           3.7621    4.4362   -7.8608 H       1  UNL11       0.0274
     24 C           1.4704    2.5497   -6.6455 C.2     1  UNL11      -0.0850
     25 H           1.1502    2.1804   -5.6740 H       1  UNL11       0.0572
     26 C           1.1803    1.6391   -7.7995 C.3     1  UNL11      -0.0308
     27 H           0.1943    1.1878   -7.6607 H       1  UNL11       0.0310
     28 H           1.1364    2.1890   -8.7409 H       1  UNL11       0.0310
@<TRIPOS>BOND
     1     7     5    1
     2     3     1    1
     3     5     6    1
     4     5     4    1
     5     5     8    1
     6     2     1    1
     7     1     4    1
     8     1    26    1
     9     4     9    2
    10    14    11    1
    11     9    10    1
    12     9    11    1
    13    12    11    1
    14    27    26    1
    15    11    13    1
    16    26    28    1
    17    26    24    1
    18    24    25    1
    19    24    19    2
    20    21    20    1
    21    19    20    1
    22    19    15    1
    23    20    23    1
    24    20    22    1
    25    16    15    1
    26    15    17    1
    27    15    18    1
