@<TRIPOS>MOLECULE
/home/jramos/PycharmProjects/GeCos/examples/02-IsoP_trueno_openbabel_mp2/02-IsoP_g16_conformers/02-IsoP_007_gaussian.xyz
 28 27 0 0 0
SMALL
GASTEIGER

@<TRIPOS>ATOM
      1 C           2.7400    0.6581   -7.4640 C.3     1  UNL11      -0.0286
      2 H           3.1761    0.7589   -6.4675 H       1  UNL11       0.0313
      3 H           2.4200   -0.3841   -7.5760 H       1  UNL11       0.0313
      4 C           3.7800    0.9834   -8.5048 C.2     1  UNL11      -0.0765
      5 C           3.3614    0.7380   -9.9295 C.3     1  UNL11      -0.0438
      6 H           4.1935    0.7879  -10.6271 H       1  UNL11       0.0274
      7 H           2.9063   -0.2502  -10.0222 H       1  UNL11       0.0274
      8 H           2.6130    1.4645  -10.2526 H       1  UNL11       0.0274
      9 C           4.9721    1.4870   -8.1332 C.2     1  UNL11      -0.0881
     10 H           5.1397    1.6192   -7.0679 H       1  UNL11       0.0569
     11 C           6.1140    1.9010   -9.0105 C.3     1  UNL11      -0.0466
     12 H           5.9032    1.7661  -10.0683 H       1  UNL11       0.0272
     13 H           6.3537    2.9541   -8.8527 H       1  UNL11       0.0272
     14 H           7.0139    1.3315   -8.7709 H       1  UNL11       0.0272
     15 C           2.2662    5.2119   -6.3334 C.3     1  UNL11      -0.0440
     16 H           2.5797    5.5154   -7.3311 H       1  UNL11       0.0274
     17 H           1.4525    5.8676   -6.0151 H       1  UNL11       0.0274
     18 H           3.0978    5.3832   -5.6462 H       1  UNL11       0.0274
     19 C           1.8357    3.7712   -6.3050 C.2     1  UNL11      -0.0796
     20 C           1.3885    3.2766   -4.9574 C.3     1  UNL11      -0.0440
     21 H           1.1056    2.2272   -4.9619 H       1  UNL11       0.0274
     22 H           2.1888    3.4054   -4.2253 H       1  UNL11       0.0274
     23 H           0.5366    3.8588   -4.5989 H       1  UNL11       0.0274
     24 C           1.8662    3.0202   -7.4220 C.2     1  UNL11      -0.0850
     25 H           2.2344    3.4921   -8.3283 H       1  UNL11       0.0572
     26 C           1.5006    1.5707   -7.5468 C.3     1  UNL11      -0.0308
     27 H           0.7924    1.2743   -6.7718 H       1  UNL11       0.0310
     28 H           0.9925    1.4072   -8.5004 H       1  UNL11       0.0310
@<TRIPOS>BOND
     1     3     1    1
     2     2     1    1
     3     7     5    1
     4     1     4    1
     5     1    26    1
     6     4     5    1
     7     4     9    2
     8    10     9    1
     9    14    11    1
    10    27    26    1
    11     5     6    1
    12     5     8    1
    13     9    11    1
    14    21    20    1
    15    26    28    1
    16    26    24    1
    17    11    12    1
    18    11    13    1
    19    22    20    1
    20    20    23    1
    21    20    19    1
    22    24    19    2
    23    24    25    1
    24    19    15    1
    25    18    15    1
    26    15    16    1
    27    15    17    1
