@<TRIPOS>MOLECULE
/home/jramos/PycharmProjects/GeCos/examples/02-IsoP_trueno_openbabel_mp2/02-IsoP_g16_conformers/02-IsoP_019_gaussian.xyz
 28 27 0 0 0
SMALL
GASTEIGER

@<TRIPOS>ATOM
      1 C           2.2397    1.3147   -8.9132 C.3     1  UNL1       -0.0286
      2 H           1.8782    0.3178   -9.1920 H       1  UNL1        0.0313
      3 H           2.1495    1.9148   -9.8260 H       1  UNL1        0.0313
      4 C           3.7027    1.2064   -8.5490 C.2     1  UNL1       -0.0765
      5 C           4.5379    0.5968   -9.6430 C.3     1  UNL1       -0.0438
      6 H           5.5938    0.5351   -9.3949 H       1  UNL1        0.0274
      7 H           4.1858   -0.4114   -9.8710 H       1  UNL1        0.0274
      8 H           4.4416    1.1805  -10.5609 H       1  UNL1        0.0274
      9 C           4.1826    1.6230   -7.3629 C.2     1  UNL1       -0.0881
     10 H           3.4808    2.0472   -6.6539 H       1  UNL1        0.0569
     11 C           5.6002    1.5765   -6.8761 C.3     1  UNL1       -0.0466
     12 H           6.2847    1.1420   -7.5995 H       1  UNL1        0.0272
     13 H           5.9578    2.5804   -6.6397 H       1  UNL1        0.0272
     14 H           5.6706    0.9910   -5.9577 H       1  UNL1        0.0272
     15 C          -2.2567    2.7290   -9.2762 C.3     1  UNL1       -0.0440
     16 H          -2.5793    1.6956   -9.1588 H       1  UNL1        0.0274
     17 H          -2.9385    3.3670   -8.7092 H       1  UNL1        0.0274
     18 H          -2.3662    3.0049  -10.3275 H       1  UNL1        0.0274
     19 C          -0.8376    2.9211   -8.8165 C.2     1  UNL1       -0.0796
     20 C          -0.3225    4.3277   -8.9454 C.3     1  UNL1       -0.0440
     21 H           0.7148    4.4314   -8.6383 H       1  UNL1        0.0274
     22 H          -0.4014    4.6631   -9.9817 H       1  UNL1        0.0274
     23 H          -0.9265    5.0121   -8.3455 H       1  UNL1        0.0274
     24 C          -0.1248    1.8868   -8.3324 C.2     1  UNL1       -0.0850
     25 H          -0.6103    0.9142   -8.3089 H       1  UNL1        0.0572
     26 C           1.2985    1.9015   -7.8586 C.3     1  UNL1       -0.0308
     27 H           1.6186    2.9125   -7.6060 H       1  UNL1        0.0310
     28 H           1.3748    1.3120   -6.9412 H       1  UNL1        0.0310
@<TRIPOS>BOND
     1     8     5    1
     2    18    15    1
     3    22    20    1
     4     7     5    1
     5     3     1    1
     6     5     6    1
     7     5     4    1
     8    15    16    1
     9    15    19    1
    10    15    17    1
    11     2     1    1
    12    20    19    1
    13    20    21    1
    14    20    23    1
    15     1     4    1
    16     1    26    1
    17    19    24    2
    18     4     9    2
    19    24    25    1
    20    24    26    1
    21    26    27    1
    22    26    28    1
    23    12    11    1
    24     9    11    1
    25     9    10    1
    26    11    13    1
    27    11    14    1
