@<TRIPOS>MOLECULE
/home/jramos/PycharmProjects/GeCos/examples/02-IsoP_trueno_openbabel_mp2/02-IsoP_g16_conformers/02-IsoP_003_gaussian.xyz
 28 27 0 0 0
SMALL
GASTEIGER

@<TRIPOS>ATOM
      1 C           2.0794    1.1053   -9.1419 C.3     1  UNL1       -0.0286
      2 H           1.9912    0.0623   -9.4568 H       1  UNL1        0.0313
      3 H           1.9830    1.7204  -10.0435 H       1  UNL1        0.0313
      4 C           3.4307    1.3271   -8.5137 C.2     1  UNL1       -0.0765
      5 C           3.6949    2.7315   -8.0442 C.3     1  UNL1       -0.0438
      6 H           4.7447    2.9123   -7.8276 H       1  UNL1        0.0274
      7 H           3.3828    3.4493   -8.8056 H       1  UNL1        0.0274
      8 H           3.1236    2.9488   -7.1398 H       1  UNL1        0.0274
      9 C           4.2922    0.3013   -8.3807 C.2     1  UNL1       -0.0881
     10 H           3.9702   -0.6661   -8.7568 H       1  UNL1        0.0569
     11 C           5.6582    0.3189   -7.7655 C.3     1  UNL1       -0.0466
     12 H           5.9394    1.3015   -7.3956 H       1  UNL1        0.0272
     13 H           5.7077   -0.3768   -6.9258 H       1  UNL1        0.0272
     14 H           6.4134    0.0008   -8.4866 H       1  UNL1        0.0272
     15 C           1.1329    0.1880   -4.4850 C.3     1  UNL1       -0.0440
     16 H           1.2611   -0.8414   -4.8161 H       1  UNL1        0.0274
     17 H           1.9946    0.4595   -3.8708 H       1  UNL1        0.0274
     18 H           0.2549    0.2334   -3.8366 H       1  UNL1        0.0274
     19 C           0.9899    1.1294   -5.6496 C.2     1  UNL1       -0.0796
     20 C           0.8080    2.5713   -5.2629 C.3     1  UNL1       -0.0440
     21 H           0.7058    3.2347   -6.1176 H       1  UNL1        0.0274
     22 H          -0.0836    2.6849   -4.6421 H       1  UNL1        0.0274
     23 H           1.6545    2.9142   -4.6636 H       1  UNL1        0.0274
     24 C           1.0211    0.6652   -6.9129 C.2     1  UNL1       -0.0850
     25 H           1.1518   -0.4069   -7.0442 H       1  UNL1        0.0572
     26 C           0.9173    1.4417   -8.1900 C.3     1  UNL1       -0.0308
     27 H          -0.0238    1.2043   -8.6970 H       1  UNL1        0.0310
     28 H           0.9004    2.5146   -7.9994 H       1  UNL1        0.0310
@<TRIPOS>BOND
     1     3     1    1
     2     2     1    1
     3     1     4    1
     4     1    26    1
     5     7     5    1
     6    10     9    1
     7    27    26    1
     8     4     9    2
     9     4     5    1
    10    14    11    1
    11     9    11    1
    12    26    28    1
    13    26    24    1
    14     5     6    1
    15     5     8    1
    16    11    12    1
    17    11    13    1
    18    25    24    1
    19    24    19    2
    20    21    20    1
    21    19    20    1
    22    19    15    1
    23    20    23    1
    24    20    22    1
    25    16    15    1
    26    15    17    1
    27    15    18    1
