@<TRIPOS>MOLECULE
/home/jramos/PycharmProjects/GeCos/examples/02-IsoP_trueno_openbabel_mp2/02-IsoP_g16_conformers/02-IsoP_033_gaussian.xyz
 28 27 0 0 0
SMALL
GASTEIGER

@<TRIPOS>ATOM
      1 C           2.2411    1.3386   -8.9916 C.3     1  UNL1       -0.0286
      2 H           1.9426    0.3628   -9.3923 H       1  UNL1        0.0313
      3 H           2.1694    2.0300   -9.8399 H       1  UNL1        0.0313
      4 C           3.6915    1.2495   -8.5747 C.2     1  UNL1       -0.0765
      5 C           4.6139    0.9438   -9.7243 C.3     1  UNL1       -0.0438
      6 H           5.6497    0.8163   -9.4225 H       1  UNL1        0.0274
      7 H           4.2969    0.0298  -10.2312 H       1  UNL1        0.0274
      8 H           4.5753    1.7456  -10.4650 H       1  UNL1        0.0274
      9 C           4.0875    1.4080   -7.2987 C.2     1  UNL1       -0.0881
     10 H           3.3298    1.6411   -6.5616 H       1  UNL1        0.0569
     11 C           5.4808    1.3267   -6.7511 C.3     1  UNL1       -0.0466
     12 H           6.2243    1.0910   -7.5080 H       1  UNL1        0.0272
     13 H           5.7649    2.2736   -6.2883 H       1  UNL1        0.0272
     14 H           5.5428    0.5631   -5.9735 H       1  UNL1        0.0272
     15 C           1.5951    5.1861   -6.0416 C.3     1  UNL1       -0.0440
     16 H           1.7103    5.7215   -6.9828 H       1  UNL1        0.0274
     17 H           0.7420    5.6110   -5.5076 H       1  UNL1        0.0274
     18 H           2.4792    5.3771   -5.4289 H       1  UNL1        0.0274
     19 C           1.4087    3.7103   -6.2644 C.2     1  UNL1       -0.0796
     20 C           1.2468    2.9050   -5.0052 C.3     1  UNL1       -0.0440
     21 H           1.0994    1.8445   -5.1922 H       1  UNL1        0.0274
     22 H           2.1249    3.0202   -4.3652 H       1  UNL1        0.0274
     23 H           0.3897    3.2658   -4.4323 H       1  UNL1        0.0274
     24 C           1.4038    3.1991   -7.5093 C.2     1  UNL1       -0.0850
     25 H           1.5289    3.8979   -8.3339 H       1  UNL1        0.0572
     26 C           1.2267    1.7691   -7.9290 C.3     1  UNL1       -0.0308
     27 H           1.2775    1.0896   -7.0779 H       1  UNL1        0.0310
     28 H           0.2274    1.6446   -8.3596 H       1  UNL1        0.0310
@<TRIPOS>BOND
     1     8     5    1
     2     7     5    1
     3     3     1    1
     4     5     6    1
     5     5     4    1
     6     2     1    1
     7     1     4    1
     8     1    26    1
     9     4     9    2
    10    28    26    1
    11    25    24    1
    12    26    24    1
    13    26    27    1
    14    24    19    2
    15    12    11    1
    16     9    11    1
    17     9    10    1
    18    16    15    1
    19    11    13    1
    20    11    14    1
    21    19    15    1
    22    19    20    1
    23    15    17    1
    24    15    18    1
    25    21    20    1
    26    20    23    1
    27    20    22    1
