@<TRIPOS>MOLECULE
/home/jramos/PycharmProjects/GeCos/examples/02-IsoP_trueno_openbabel_mp2/02-IsoP_g16_conformers/02-IsoP_004_gaussian.xyz
 28 27 0 0 0
SMALL
GASTEIGER

@<TRIPOS>ATOM
      1 C           2.1441    1.2143   -9.1799 C.3     1  UNL1       -0.0286
      2 H           1.9355    0.1689   -9.4333 H       1  UNL1        0.0313
      3 H           2.1875    1.7678  -10.1214 H       1  UNL1        0.0313
      4 C           3.4730    1.3147   -8.4772 C.2     1  UNL1       -0.0765
      5 C           3.5601    0.5822   -7.1662 C.3     1  UNL1       -0.0438
      6 H           4.5823    0.4703   -6.8138 H       1  UNL1        0.0274
      7 H           2.9945    1.1070   -6.3939 H       1  UNL1        0.0274
      8 H           3.1289   -0.4164   -7.2621 H       1  UNL1        0.0274
      9 C           4.4693    2.0438   -9.0137 C.2     1  UNL1       -0.0881
     10 H           4.2691    2.5295   -9.9649 H       1  UNL1        0.0569
     11 C           5.8400    2.2816   -8.4574 C.3     1  UNL1       -0.0466
     12 H           5.9967    1.7881   -7.5017 H       1  UNL1        0.0272
     13 H           6.6070    1.9287   -9.1494 H       1  UNL1        0.0272
     14 H           6.0121    3.3493   -8.3099 H       1  UNL1        0.0272
     15 C           1.4863    5.1511   -6.4431 C.3     1  UNL1       -0.0440
     16 H           1.7412    5.6575   -7.3727 H       1  UNL1        0.0274
     17 H           0.6325    5.6649   -5.9952 H       1  UNL1        0.0274
     18 H           2.3235    5.2654   -5.7507 H       1  UNL1        0.0274
     19 C           1.1782    3.6966   -6.6724 C.2     1  UNL1       -0.0796
     20 C           0.8157    2.9355   -5.4271 C.3     1  UNL1       -0.0440
     21 H           0.5960    1.8877   -5.6139 H       1  UNL1        0.0274
     22 H           1.6273    2.9898   -4.6981 H       1  UNL1        0.0274
     23 H          -0.0620    3.3826   -4.9548 H       1  UNL1        0.0274
     24 C           1.2296    3.1732   -7.9117 C.2     1  UNL1       -0.0850
     25 H           1.4999    3.8456   -8.7232 H       1  UNL1        0.0572
     26 C           0.9793    1.7572   -8.3323 C.3     1  UNL1       -0.0308
     27 H           0.8236    1.1105   -7.4690 H       1  UNL1        0.0310
     28 H           0.0628    1.7003   -8.9288 H       1  UNL1        0.0310
@<TRIPOS>BOND
     1     3     1    1
     2    10     9    1
     3     2     1    1
     4     1     4    1
     5     1    26    1
     6    13    11    1
     7     9     4    2
     8     9    11    1
     9    28    26    1
    10    25    24    1
    11     4     5    1
    12    11    14    1
    13    11    12    1
    14    26    24    1
    15    26    27    1
    16    24    19    2
    17    16    15    1
    18     8     5    1
    19     5     6    1
    20     5     7    1
    21    19    15    1
    22    19    20    1
    23    15    17    1
    24    15    18    1
    25    21    20    1
    26    20    23    1
    27    20    22    1
