@<TRIPOS>MOLECULE
/home/jramos/PycharmProjects/GeCos/examples/02-IsoP_trueno_openbabel_mp2/02-IsoP_g16_conformers/02-IsoP_009_gaussian.xyz
 28 27 0 0 0
SMALL
GASTEIGER

@<TRIPOS>ATOM
      1 C           2.0688    1.3617   -8.7618 C.3     1  UNL1       -0.0286
      2 H           1.7172    0.4877   -9.3215 H       1  UNL1        0.0313
      3 H           1.8327    2.2402   -9.3668 H       1  UNL1        0.0313
      4 C           3.5581    1.2672   -8.5519 C.2     1  UNL1       -0.0765
      5 C           4.0385    0.0149   -7.8673 C.3     1  UNL1       -0.0438
      6 H           5.1097   -0.1365   -7.9750 H       1  UNL1        0.0274
      7 H           3.8107    0.0319   -6.7999 H       1  UNL1        0.0274
      8 H           3.5348   -0.8575   -8.2878 H       1  UNL1        0.0274
      9 C           4.3578    2.2784   -8.9408 C.2     1  UNL1       -0.0881
     10 H           3.8815    3.1256   -9.4269 H       1  UNL1        0.0569
     11 C           5.8445    2.3878   -8.7886 C.3     1  UNL1       -0.0466
     12 H           6.2776    1.5339   -8.2740 H       1  UNL1        0.0272
     13 H           6.3297    2.4773   -9.7623 H       1  UNL1        0.0272
     14 H           6.1054    3.2826   -8.2207 H       1  UNL1        0.0272
     15 C          -2.4487    2.5395   -7.9617 C.3     1  UNL1       -0.0440
     16 H          -2.7487    1.5184   -8.1922 H       1  UNL1        0.0274
     17 H          -3.0422    2.8874   -7.1131 H       1  UNL1        0.0274
     18 H          -2.7102    3.1737   -8.8118 H       1  UNL1        0.0274
     19 C          -0.9782    2.6290   -7.6586 C.2     1  UNL1       -0.0796
     20 C          -0.4901    4.0118   -7.3265 C.3     1  UNL1       -0.0440
     21 H           0.5810    4.0532   -7.1471 H       1  UNL1        0.0274
     22 H          -0.7212    4.6980   -8.1441 H       1  UNL1        0.0274
     23 H          -1.0003    4.3944   -6.4397 H       1  UNL1        0.0274
     24 C          -0.2001    1.5307   -7.6902 C.2     1  UNL1       -0.0850
     25 H          -0.6747    0.5915   -7.9639 H       1  UNL1        0.0572
     26 C           1.2769    1.4527   -7.4446 C.3     1  UNL1       -0.0308
     27 H           1.6362    2.3156   -6.8823 H       1  UNL1        0.0310
     28 H           1.4889    0.5728   -6.8319 H       1  UNL1        0.0310
@<TRIPOS>BOND
     1    13    11    1
     2    10     9    1
     3     3     1    1
     4     2     1    1
     5     9    11    1
     6     9     4    2
     7    18    15    1
     8    11    12    1
     9    11    14    1
    10     1     4    1
    11     1    26    1
    12     4     5    1
    13     8     5    1
    14    16    15    1
    15    22    20    1
    16     6     5    1
    17    25    24    1
    18    15    19    1
    19    15    17    1
    20     5     7    1
    21    24    19    2
    22    24    26    1
    23    19    20    1
    24    26    27    1
    25    26    28    1
    26    20    21    1
    27    20    23    1
