@<TRIPOS>MOLECULE
/home/jramos/PycharmProjects/GeCos/examples/02-IsoP_trueno_openbabel_mp2/02-IsoP_g16_conformers/02-IsoP_001_gaussian.xyz
 28 27 0 0 0
SMALL
GASTEIGER

@<TRIPOS>ATOM
      1 C           2.0333    1.2665   -8.6765 C.3     1  UNL1       -0.0286
      2 H           1.5939    0.3932   -8.1888 H       1  UNL1        0.0313
      3 H           1.7711    1.2018   -9.7385 H       1  UNL1        0.0313
      4 C           3.5318    1.2436   -8.5190 C.2     1  UNL1       -0.0765
      5 C           4.2803    2.3064   -9.2793 C.3     1  UNL1       -0.0438
      6 H           5.3440    2.0955   -9.3562 H       1  UNL1        0.0274
      7 H           3.8833    2.3904  -10.2927 H       1  UNL1        0.0274
      8 H           4.1685    3.2856   -8.8100 H       1  UNL1        0.0274
      9 C           4.1098    0.3319   -7.7142 C.2     1  UNL1       -0.0881
     10 H           3.4527   -0.3822   -7.2251 H       1  UNL1        0.0569
     11 C           5.5664    0.1710   -7.4013 C.3     1  UNL1       -0.0466
     12 H           6.1855    0.9199   -7.8886 H       1  UNL1        0.0272
     13 H           5.7371    0.2505   -6.3262 H       1  UNL1        0.0272
     14 H           5.9235   -0.8141   -7.7072 H       1  UNL1        0.0272
     15 C          -2.5042    2.2309   -7.7199 C.3     1  UNL1       -0.0440
     16 H          -2.6567    2.5137   -8.7603 H       1  UNL1        0.0274
     17 H          -2.9546    1.2483   -7.5621 H       1  UNL1        0.0274
     18 H          -3.0525    2.9351   -7.0899 H       1  UNL1        0.0274
     19 C          -1.0441    2.2154   -7.3591 C.2     1  UNL1       -0.0796
     20 C          -0.7551    1.8367   -5.9331 C.3     1  UNL1       -0.0440
     21 H           0.3078    1.7986   -5.7100 H       1  UNL1        0.0274
     22 H          -1.2232    2.5460   -5.2469 H       1  UNL1        0.0274
     23 H          -1.1809    0.8557   -5.7115 H       1  UNL1        0.0274
     24 C          -0.1054    2.5268   -8.2727 C.2     1  UNL1       -0.0850
     25 H          -0.4471    2.7650   -9.2771 H       1  UNL1        0.0572
     26 C           1.3823    2.5306   -8.0860 C.3     1  UNL1       -0.0308
     27 H           1.7990    3.4155   -8.5738 H       1  UNL1        0.0310
     28 H           1.6541    2.6011   -7.0319 H       1  UNL1        0.0310
@<TRIPOS>BOND
     1     7     5    1
     2     3     1    1
     3     6     5    1
     4     5     8    1
     5     5     4    1
     6    25    24    1
     7    16    15    1
     8     1     4    1
     9     1     2    1
    10     1    26    1
    11    27    26    1
    12     4     9    2
    13    24    26    1
    14    24    19    2
    15    26    28    1
    16    12    11    1
    17    15    17    1
    18    15    19    1
    19    15    18    1
    20     9    11    1
    21     9    10    1
    22    14    11    1
    23    11    13    1
    24    19    20    1
    25    20    23    1
    26    20    21    1
    27    20    22    1
