@<TRIPOS>MOLECULE
/home/jramos/PycharmProjects/GeCos/examples/02-IsoP_trueno_openbabel_mp2/02-IsoP_g16_conformers/02-IsoP_001_gaussian.xyz
 28 27 0 0 0
SMALL
GASTEIGER

@<TRIPOS>ATOM
      1 C           3.0959    1.3197   -7.4363 C.3     1  UNL11      -0.0286
      2 H           3.6821    1.7130   -6.6025 H       1  UNL11       0.0313
      3 H           2.4891    0.4989   -7.0377 H       1  UNL11       0.0313
      4 C           4.0154    0.7989   -8.5106 C.2     1  UNL11      -0.0765
      5 C           3.3408    0.0831   -9.6510 C.3     1  UNL11      -0.0438
      6 H           4.0366   -0.4986  -10.2503 H       1  UNL11       0.0274
      7 H           2.5809   -0.5997   -9.2662 H       1  UNL11       0.0274
      8 H           2.8333    0.7836  -10.3168 H       1  UNL11       0.0274
      9 C           5.3416    1.0147   -8.4238 C.2     1  UNL11      -0.0881
     10 H           5.6993    1.5439   -7.5446 H       1  UNL11       0.0569
     11 C           6.4063    0.6119   -9.3983 C.3     1  UNL11      -0.0466
     12 H           6.0047    0.1096  -10.2747 H       1  UNL11       0.0272
     13 H           6.9586    1.4875   -9.7441 H       1  UNL11       0.0272
     14 H           7.1313   -0.0554   -8.9286 H       1  UNL11       0.0272
     15 C           0.3830    4.3613   -5.0232 C.3     1  UNL11      -0.0440
     16 H          -0.3903    3.5988   -4.9442 H       1  UNL11       0.0274
     17 H           0.8806    4.4466   -4.0545 H       1  UNL11       0.0274
     18 H          -0.1013    5.3214   -5.2157 H       1  UNL11       0.0274
     19 C           1.3731    4.0349   -6.1075 C.2     1  UNL11      -0.0796
     20 C           2.4712    5.0475   -6.2787 C.3     1  UNL11      -0.0440
     21 H           3.1914    4.7689   -7.0434 H       1  UNL11       0.0274
     22 H           2.0545    6.0226   -6.5406 H       1  UNL11       0.0274
     23 H           3.0117    5.1777   -5.3387 H       1  UNL11       0.0274
     24 C           1.2441    2.9151   -6.8437 C.2     1  UNL11      -0.0850
     25 H           0.4138    2.2547   -6.6054 H       1  UNL11       0.0572
     26 C           2.1533    2.4310   -7.9333 C.3     1  UNL11      -0.0308
     27 H           1.5466    2.0503   -8.7589 H       1  UNL11       0.0310
     28 H           2.7577    3.2422   -8.3414 H       1  UNL11       0.0310
@<TRIPOS>BOND
     1     7     5    1
     2     3     1    1
     3     6     5    1
     4     5     8    1
     5     5     4    1
     6    25    24    1
     7    16    15    1
     8     1     4    1
     9     1     2    1
    10     1    26    1
    11    27    26    1
    12     4     9    2
    13    24    26    1
    14    24    19    2
    15    26    28    1
    16    12    11    1
    17    15    17    1
    18    15    19    1
    19    15    18    1
    20     9    11    1
    21     9    10    1
    22    14    11    1
    23    11    13    1
    24    19    20    1
    25    20    23    1
    26    20    21    1
    27    20    22    1
