@<TRIPOS>MOLECULE
/home/jramos/PycharmProjects/GeCos/examples/02-IsoP_trueno_openbabel_mp2/02-IsoP_g16_conformers/02-IsoP_031_gaussian.xyz
 28 27 0 0 0
SMALL
GASTEIGER

@<TRIPOS>ATOM
      1 C           2.1653    1.0837   -9.0054 C.3     1  UNL1       -0.0286
      2 H           2.0360    0.0204   -9.2411 H       1  UNL1        0.0313
      3 H           2.0453    1.6050   -9.9623 H       1  UNL1        0.0313
      4 C           3.5857    1.2945   -8.5327 C.2     1  UNL1       -0.0765
      5 C           4.6086    0.7239   -9.4781 C.3     1  UNL1       -0.0438
      6 H           5.6327    0.9253   -9.1765 H       1  UNL1        0.0274
      7 H           4.4882   -0.3587   -9.5587 H       1  UNL1        0.0274
      8 H           4.4673    1.1331  -10.4808 H       1  UNL1        0.0274
      9 C           3.8786    1.9477   -7.3936 C.2     1  UNL1       -0.0881
     10 H           3.0528    2.2989   -6.7880 H       1  UNL1        0.0569
     11 C           5.2339    2.2402   -6.8233 C.3     1  UNL1       -0.0466
     12 H           6.0471    1.8819   -7.4489 H       1  UNL1        0.0272
     13 H           5.3677    3.3148   -6.6855 H       1  UNL1        0.0272
     14 H           5.3419    1.7791   -5.8397 H       1  UNL1        0.0272
     15 C           0.7613    0.0495   -4.4356 C.3     1  UNL1       -0.0440
     16 H           0.8463   -0.9684   -4.8131 H       1  UNL1        0.0274
     17 H           1.5680    0.2167   -3.7181 H       1  UNL1        0.0274
     18 H          -0.1769    0.1327   -3.8823 H       1  UNL1        0.0274
     19 C           0.8197    1.0587   -5.5493 C.2     1  UNL1       -0.0796
     20 C           0.7128    2.4896   -5.1006 C.3     1  UNL1       -0.0440
     21 H           0.7433    3.1989   -5.9235 H       1  UNL1        0.0274
     22 H          -0.2216    2.6475   -4.5574 H       1  UNL1        0.0274
     23 H           1.5239    2.7325   -4.4100 H       1  UNL1        0.0274
     24 C           0.9657    0.6632   -6.8274 C.2     1  UNL1       -0.0850
     25 H           1.0279   -0.4073   -7.0123 H       1  UNL1        0.0572
     26 C           1.0372    1.5117   -8.0633 C.3     1  UNL1       -0.0308
     27 H           0.0957    1.4188   -8.6150 H       1  UNL1        0.0310
     28 H           1.1442    2.5692   -7.8210 H       1  UNL1        0.0310
@<TRIPOS>BOND
     1     8     5    1
     2     3     1    1
     3     7     5    1
     4     5     6    1
     5     5     4    1
     6     2     1    1
     7     1     4    1
     8     1    26    1
     9    27    26    1
    10     4     9    2
    11    26    28    1
    12    26    24    1
    13    12    11    1
    14     9    11    1
    15     9    10    1
    16    25    24    1
    17    24    19    2
    18    11    13    1
    19    11    14    1
    20    21    20    1
    21    19    20    1
    22    19    15    1
    23    20    22    1
    24    20    23    1
    25    16    15    1
    26    15    18    1
    27    15    17    1
