@<TRIPOS>MOLECULE
/home/jramos/PycharmProjects/GeCos/examples/02-IsoP_trueno_openbabel_mp2/02-IsoP_g16_conformers/02-IsoP_003_gaussian.xyz
 28 27 0 0 0
SMALL
GASTEIGER

@<TRIPOS>ATOM
      1 C           2.4763    0.4394   -7.9730 C.3     1  UNL11      -0.0286
      2 H           2.7773   -0.2167   -7.1522 H       1  UNL11       0.0313
      3 H           2.0258   -0.1975   -8.7423 H       1  UNL11       0.0313
      4 C           3.6910    1.1342   -8.5312 C.2     1  UNL11      -0.0765
      5 C           3.4232    2.0634   -9.6833 C.3     1  UNL11      -0.0438
      6 H           4.3290    2.3513  -10.2110 H       1  UNL11       0.0274
      7 H           2.7538    1.5888  -10.4037 H       1  UNL11       0.0274
      8 H           2.9331    2.9750   -9.3365 H       1  UNL11       0.0274
      9 C           4.9025    0.9246   -7.9831 C.2     1  UNL11      -0.0881
     10 H           4.9534    0.2321   -7.1472 H       1  UNL11       0.0569
     11 C           6.2114    1.5373   -8.3785 C.3     1  UNL11      -0.0466
     12 H           6.1166    2.2284   -9.2121 H       1  UNL11       0.0272
     13 H           6.6440    2.0874   -7.5408 H       1  UNL11       0.0272
     14 H           6.9322    0.7670   -8.6589 H       1  UNL11       0.0272
     15 C           2.5820    4.4758   -5.3045 C.3     1  UNL11      -0.0440
     16 H           3.0715    3.8137   -4.5919 H       1  UNL11       0.0274
     17 H           3.3313    5.1640   -5.7023 H       1  UNL11       0.0274
     18 H           1.8507    5.0814   -4.7643 H       1  UNL11       0.0274
     19 C           1.9241    3.7031   -6.4150 C.2     1  UNL11      -0.0796
     20 C           1.2265    4.5580   -7.4368 C.3     1  UNL11      -0.0440
     21 H           0.7573    3.9816   -8.2296 H       1  UNL11       0.0274
     22 H           0.4519    5.1610   -6.9575 H       1  UNL11       0.0274
     23 H           1.9313    5.2566   -7.8935 H       1  UNL11       0.0274
     24 C           1.9789    2.3582   -6.4390 C.2     1  UNL11      -0.0850
     25 H           2.5134    1.8691   -5.6273 H       1  UNL11       0.0572
     26 C           1.4088    1.4240   -7.4622 C.3     1  UNL11      -0.0308
     27 H           0.5874    0.8464   -7.0254 H       1  UNL11       0.0310
     28 H           0.9847    1.9715   -8.3037 H       1  UNL11       0.0310
@<TRIPOS>BOND
     1     3     1    1
     2     2     1    1
     3     1     4    1
     4     1    26    1
     5     7     5    1
     6    10     9    1
     7    27    26    1
     8     4     9    2
     9     4     5    1
    10    14    11    1
    11     9    11    1
    12    26    28    1
    13    26    24    1
    14     5     6    1
    15     5     8    1
    16    11    12    1
    17    11    13    1
    18    25    24    1
    19    24    19    2
    20    21    20    1
    21    19    20    1
    22    19    15    1
    23    20    23    1
    24    20    22    1
    25    16    15    1
    26    15    17    1
    27    15    18    1
