@<TRIPOS>MOLECULE
/home/jramos/PycharmProjects/GeCos/examples/02-IsoP_trueno_openbabel_mp2/02-IsoP_g16_conformers/02-IsoP_030_gaussian.xyz
 28 27 0 0 0
SMALL
GASTEIGER

@<TRIPOS>ATOM
      1 C           2.4090    1.1070   -9.1496 C.3     1  UNL1       -0.0286
      2 H           2.0809    0.0761   -9.3059 H       1  UNL1        0.0313
      3 H           2.3525    1.6116  -10.1180 H       1  UNL1        0.0313
      4 C           3.8376    1.1201   -8.6506 C.2     1  UNL1       -0.0765
      5 C           4.7003    2.2329   -9.1799 C.3     1  UNL1       -0.0438
      6 H           5.6731    2.2860   -8.6971 H       1  UNL1        0.0274
      7 H           4.8629    2.1013  -10.2523 H       1  UNL1        0.0274
      8 H           4.1987    3.1921   -9.0491 H       1  UNL1        0.0274
      9 C           4.2426    0.1718   -7.7849 C.2     1  UNL1       -0.0881
     10 H           3.5118   -0.5847   -7.5076 H       1  UNL1        0.0569
     11 C           5.5880    0.0150   -7.1442 C.3     1  UNL1       -0.0466
     12 H           6.2872    0.7921   -7.4419 H       1  UNL1        0.0272
     13 H           5.5030    0.0399   -6.0562 H       1  UNL1        0.0272
     14 H           6.0296   -0.9484   -7.4056 H       1  UNL1        0.0272
     15 C           1.8425    5.6804   -7.9863 C.3     1  UNL1       -0.0440
     16 H           2.5807    5.5972   -7.1900 H       1  UNL1        0.0274
     17 H           2.2980    6.2169   -8.8218 H       1  UNL1        0.0274
     18 H           1.0177    6.2992   -7.6253 H       1  UNL1        0.0274
     19 C           1.3464    4.3292   -8.4224 C.2     1  UNL1       -0.0796
     20 C           0.3212    4.3599   -9.5214 C.3     1  UNL1       -0.0440
     21 H          -0.0000    3.3683   -9.8295 H       1  UNL1        0.0274
     22 H          -0.5603    4.9233   -9.2072 H       1  UNL1        0.0274
     23 H           0.7251    4.8698  -10.3987 H       1  UNL1        0.0274
     24 C           1.8113    3.2041   -7.8460 C.2     1  UNL1       -0.0850
     25 H           2.5661    3.3142   -7.0723 H       1  UNL1        0.0572
     26 C           1.4285    1.7911   -8.1765 C.3     1  UNL1       -0.0308
     27 H           1.4102    1.2069   -7.2529 H       1  UNL1        0.0310
     28 H           0.4214    1.7458   -8.5951 H       1  UNL1        0.0310
@<TRIPOS>BOND
     1    23    20    1
     2     7     5    1
     3     3     1    1
     4    21    20    1
     5    20    22    1
     6    20    19    1
     7     2     1    1
     8     5     8    1
     9     5     6    1
    10     5     4    1
    11     1     4    1
    12     1    26    1
    13    17    15    1
    14     4     9    2
    15    28    26    1
    16    19    15    1
    17    19    24    2
    18    26    24    1
    19    26    27    1
    20    15    18    1
    21    15    16    1
    22    24    25    1
    23     9    10    1
    24     9    11    1
    25    12    11    1
    26    14    11    1
    27    11    13    1
