@<TRIPOS>MOLECULE
/home/jramos/PycharmProjects/GeCos/examples/02-IsoP_trueno_openbabel_mp2/02-IsoP_g16_conformers/02-IsoP_020_gaussian.xyz
 28 27 0 0 0
SMALL
GASTEIGER

@<TRIPOS>ATOM
      1 C           2.0549    1.7680   -8.6957 C.3     1  UNL1       -0.0286
      2 H           1.4801    0.8822   -8.9799 H       1  UNL1        0.0313
      3 H           1.9923    2.4717   -9.5299 H       1  UNL1        0.0313
      4 C           3.4988    1.3836   -8.4565 C.2     1  UNL1       -0.0765
      5 C           3.7333   -0.0506   -8.0683 C.3     1  UNL1       -0.0438
      6 H           4.7611   -0.2515   -7.7757 H       1  UNL1        0.0274
      7 H           3.0799   -0.3276   -7.2407 H       1  UNL1        0.0274
      8 H           3.4860   -0.7089   -8.9044 H       1  UNL1        0.0274
      9 C           4.4608    2.3157   -8.5931 C.2     1  UNL1       -0.0881
     10 H           4.1423    3.3089   -8.9019 H       1  UNL1        0.0569
     11 C           5.9356    2.1646   -8.3755 C.3     1  UNL1       -0.0466
     12 H           6.2129    1.1603   -8.0660 H       1  UNL1        0.0272
     13 H           6.4858    2.3953   -9.2896 H       1  UNL1        0.0272
     14 H           6.2865    2.8597   -7.6104 H       1  UNL1        0.0272
     15 C           0.7504   -0.0941   -4.5217 C.3     1  UNL1       -0.0440
     16 H           1.7356    0.0959   -4.0984 H       1  UNL1        0.0274
     17 H           0.0006    0.1383   -3.7619 H       1  UNL1        0.0274
     18 H           0.6673   -1.1630   -4.7313 H       1  UNL1        0.0274
     19 C           0.5190    0.7167   -5.7671 C.2     1  UNL1       -0.0796
     20 C          -0.8231    0.5101   -6.4122 C.3     1  UNL1       -0.0440
     21 H          -0.9503    1.0913   -7.3218 H       1  UNL1        0.0274
     22 H          -0.9608   -0.5435   -6.6649 H       1  UNL1        0.0274
     23 H          -1.6256    0.7761   -5.7206 H       1  UNL1        0.0274
     24 C           1.4675    1.5517   -6.2334 C.2     1  UNL1       -0.0850
     25 H           2.4044    1.5992   -5.6856 H       1  UNL1        0.0572
     26 C           1.3942    2.4121   -7.4609 C.3     1  UNL1       -0.0308
     27 H           0.3597    2.6644   -7.7012 H       1  UNL1        0.0310
     28 H           1.9079    3.3557   -7.2596 H       1  UNL1        0.0310
@<TRIPOS>BOND
     1     3     1    1
     2    13    11    1
     3     2     1    1
     4     8     5    1
     5    10     9    1
     6     1     4    1
     7     1    26    1
     8     9     4    2
     9     9    11    1
    10     4     5    1
    11    11    12    1
    12    11    14    1
    13     5     6    1
    14     5     7    1
    15    27    26    1
    16    26    28    1
    17    26    24    1
    18    21    20    1
    19    22    20    1
    20    20    19    1
    21    20    23    1
    22    24    19    2
    23    24    25    1
    24    19    15    1
    25    18    15    1
    26    15    16    1
    27    15    17    1
