@<TRIPOS>MOLECULE
/home/jramos/PycharmProjects/GeCos/examples/02-IsoP_trueno_openbabel_mp2/02-IsoP_g16_conformers/02-IsoP_024_gaussian.xyz
 28 27 0 0 0
SMALL
GASTEIGER

@<TRIPOS>ATOM
      1 C           2.3166    1.5846   -9.4743 C.3     1  UNL1       -0.0286
      2 H           2.0761    0.6454   -9.9861 H       1  UNL1        0.0313
      3 H           2.5601    2.2925  -10.2757 H       1  UNL1        0.0313
      4 C           3.5613    1.3605   -8.6460 C.2     1  UNL1       -0.0765
      5 C           4.7598    0.9902   -9.4779 C.3     1  UNL1       -0.0438
      6 H           5.6428    0.7681   -8.8852 H       1  UNL1        0.0274
      7 H           4.5385    0.1146  -10.0920 H       1  UNL1        0.0274
      8 H           5.0105    1.8022  -10.1642 H       1  UNL1        0.0274
      9 C           3.5650    1.4646   -7.3046 C.2     1  UNL1       -0.0881
     10 H           2.6415    1.7539   -6.8195 H       1  UNL1        0.0569
     11 C           4.7165    1.2513   -6.3687 C.3     1  UNL1       -0.0466
     12 H           5.6318    0.9594   -6.8769 H       1  UNL1        0.0272
     13 H           4.9244    2.1628   -5.8050 H       1  UNL1        0.0272
     14 H           4.4783    0.4753   -5.6389 H       1  UNL1        0.0272
     15 C           1.1181    5.4293   -6.6984 C.3     1  UNL1       -0.0440
     16 H           1.5558    5.9663   -7.5385 H       1  UNL1        0.0274
     17 H           0.1800    5.9200   -6.4291 H       1  UNL1        0.0274
     18 H           1.7870    5.5325   -5.8407 H       1  UNL1        0.0274
     19 C           0.8911    3.9792   -7.0269 C.2     1  UNL1       -0.0796
     20 C           0.2925    3.1727   -5.9083 C.3     1  UNL1       -0.0440
     21 H           0.1248    2.1322   -6.1739 H       1  UNL1        0.0274
     22 H           0.9423    3.2006   -5.0302 H       1  UNL1        0.0274
     23 H          -0.6662    3.5990   -5.6047 H       1  UNL1        0.0274
     24 C           1.2218    3.4892   -8.2360 C.2     1  UNL1       -0.0850
     25 H           1.6455    4.1866   -8.9558 H       1  UNL1        0.0572
     26 C           1.0664    2.0869   -8.7476 C.3     1  UNL1       -0.0308
     27 H           0.8037    1.3929   -7.9490 H       1  UNL1        0.0310
     28 H           0.2371    2.0576   -9.4624 H       1  UNL1        0.0310
@<TRIPOS>BOND
     1     3     1    1
     2     8     5    1
     3     7     5    1
     4     2     1    1
     5     5     6    1
     6     5     4    1
     7     1    26    1
     8     1     4    1
     9    28    26    1
    10    25    24    1
    11    26    24    1
    12    26    27    1
    13     4     9    2
    14    24    19    2
    15    16    15    1
    16     9    10    1
    17     9    11    1
    18    19    15    1
    19    19    20    1
    20    12    11    1
    21    15    17    1
    22    15    18    1
    23    11    13    1
    24    11    14    1
    25    21    20    1
    26    20    23    1
    27    20    22    1
