@<TRIPOS>MOLECULE
/home/jramos/PycharmProjects/GeCos/examples/02-IsoP_trueno_openbabel_mp2/02-IsoP_g16_conformers/02-IsoP_033_gaussian.xyz
 28 27 0 0 0
SMALL
GASTEIGER

@<TRIPOS>ATOM
      1 C           2.1249    0.8444   -8.5102 C.3     1  UNL11      -0.0286
      2 H           1.8730   -0.2224   -8.4939 H       1  UNL11       0.0313
      3 H           1.6075    1.2469   -9.3895 H       1  UNL11       0.0313
      4 C           3.6141    0.9702   -8.7383 C.2     1  UNL11      -0.0765
      5 C           4.0559    0.3925  -10.0562 C.3     1  UNL11      -0.0438
      6 H           5.1323    0.4227  -10.1999 H       1  UNL11       0.0274
      7 H           3.7350   -0.6481  -10.1399 H       1  UNL11       0.0274
      8 H           3.5906    0.9341  -10.8827 H       1  UNL11       0.0274
      9 C           4.4395    1.5242   -7.8318 C.2     1  UNL11      -0.0881
     10 H           3.9993    1.9200   -6.9255 H       1  UNL11       0.0569
     11 C           5.9264    1.6929   -7.9236 C.3     1  UNL11      -0.0466
     12 H           6.3466    1.2879   -8.8405 H       1  UNL11       0.0272
     13 H           6.1946    2.7498   -7.8725 H       1  UNL11       0.0272
     14 H           6.4204    1.2001   -7.0842 H       1  UNL11       0.0272
     15 C           2.0021    5.3489   -6.6082 C.3     1  UNL11      -0.0440
     16 H           1.6453    5.5863   -7.6093 H       1  UNL11       0.0274
     17 H           1.3626    5.8614   -5.8858 H       1  UNL11       0.0274
     18 H           3.0054    5.7659   -6.4947 H       1  UNL11       0.0274
     19 C           2.0096    3.8652   -6.3615 C.2     1  UNL11      -0.0796
     20 C           2.4957    3.4623   -4.9970 C.3     1  UNL11      -0.0440
     21 H           2.4785    2.3873   -4.8375 H       1  UNL11       0.0274
     22 H           3.5177    3.8149   -4.8385 H       1  UNL11       0.0274
     23 H           1.8791    3.9251   -4.2233 H       1  UNL11       0.0274
     24 C           1.6126    3.0077   -7.3198 C.2     1  UNL11      -0.0850
     25 H           1.2810    3.4361   -8.2634 H       1  UNL11       0.0572
     26 C           1.5439    1.5097   -7.2599 C.3     1  UNL11      -0.0308
     27 H           2.0414    1.1182   -6.3723 H       1  UNL11       0.0310
     28 H           0.4953    1.2033   -7.1822 H       1  UNL11       0.0310
@<TRIPOS>BOND
     1     8     5    1
     2     7     5    1
     3     3     1    1
     4     5     6    1
     5     5     4    1
     6     2     1    1
     7     1     4    1
     8     1    26    1
     9     4     9    2
    10    28    26    1
    11    25    24    1
    12    26    24    1
    13    26    27    1
    14    24    19    2
    15    12    11    1
    16     9    11    1
    17     9    10    1
    18    16    15    1
    19    11    13    1
    20    11    14    1
    21    19    15    1
    22    19    20    1
    23    15    17    1
    24    15    18    1
    25    21    20    1
    26    20    23    1
    27    20    22    1
