@<TRIPOS>MOLECULE
/home/jramos/PycharmProjects/GeCos/examples/02-IsoP_trueno_openbabel_mp2/02-IsoP_g16_conformers/02-IsoP_027_gaussian.xyz
 28 27 0 0 0
SMALL
GASTEIGER

@<TRIPOS>ATOM
      1 C           2.4532    0.9026   -7.8831 C.3     1  UNL11      -0.0286
      2 H           2.1725   -0.1580   -7.8758 H       1  UNL11       0.0313
      3 H           1.6461    1.4176   -8.4153 H       1  UNL11       0.0313
      4 C           3.7203    1.0519   -8.6961 C.2     1  UNL11      -0.0765
      5 C           3.5001    0.8352  -10.1691 C.3     1  UNL11      -0.0438
      6 H           4.4223    0.7970  -10.7423 H       1  UNL11       0.0274
      7 H           2.9656   -0.1030  -10.3327 H       1  UNL11       0.0274
      8 H           2.8762    1.6312  -10.5812 H       1  UNL11       0.0274
      9 C           4.9143    1.3171   -8.1359 C.2     1  UNL11      -0.0881
     10 H           4.9517    1.4414   -7.0596 H       1  UNL11       0.0569
     11 C           6.2396    1.4661   -8.8213 C.3     1  UNL11      -0.0466
     12 H           6.1712    1.3739   -9.9019 H       1  UNL11       0.0272
     13 H           6.6767    2.4411   -8.5988 H       1  UNL11       0.0272
     14 H           6.9453    0.7135   -8.4645 H       1  UNL11       0.0272
     15 C           1.9919    5.3145   -6.3169 C.3     1  UNL11      -0.0440
     16 H           3.0666    5.4885   -6.2933 H       1  UNL11       0.0274
     17 H           1.5803    5.8310   -7.1870 H       1  UNL11       0.0274
     18 H           1.5496    5.7812   -5.4336 H       1  UNL11       0.0274
     19 C           1.6718    3.8459   -6.3635 C.2     1  UNL11      -0.0796
     20 C           0.2032    3.5250   -6.3988 C.3     1  UNL11      -0.0440
     21 H           0.0019    2.4575   -6.4379 H       1  UNL11       0.0274
     22 H          -0.2990    3.9356   -5.5199 H       1  UNL11       0.0274
     23 H          -0.2628    3.9863   -7.2723 H       1  UNL11       0.0274
     24 C           2.6543    2.9253   -6.3767 C.2     1  UNL11      -0.0850
     25 H           3.6757    3.2908   -6.3693 H       1  UNL11       0.0572
     26 C           2.4761    1.4346   -6.4452 C.3     1  UNL11      -0.0308
     27 H           3.2699    0.9409   -5.8801 H       1  UNL11       0.0310
     28 H           1.5429    1.1412   -5.9618 H       1  UNL11       0.0310
@<TRIPOS>BOND
     1     7     5    1
     2     8     5    1
     3    23    20    1
     4     3     1    1
     5     5     6    1
     6     5     4    1
     7    21    20    1
     8     2     1    1
     9    20    22    1
    10    20    19    1
    11     1     4    1
    12     1    26    1
    13     4     9    2
    14    17    15    1
    15    28    26    1
    16    19    15    1
    17    19    24    2
    18    26    24    1
    19    26    27    1
    20    12    11    1
    21    15    18    1
    22    15    16    1
    23    24    25    1
    24     9    11    1
    25     9    10    1
    26    11    13    1
    27    11    14    1
