@<TRIPOS>MOLECULE
/home/jramos/PycharmProjects/GeCos/examples/02-IsoP_trueno_openbabel_mp2/02-IsoP_g16_conformers/02-IsoP_014_gaussian.xyz
 28 27 0 0 0
SMALL
GASTEIGER

@<TRIPOS>ATOM
      1 C           2.1705    0.9143   -8.6825 C.3     1  UNL11      -0.0286
      2 H           2.1395   -0.1758   -8.7551 H       1  UNL11       0.0313
      3 H           1.6483    1.3042   -9.5608 H       1  UNL11       0.0313
      4 C           3.6075    1.3883   -8.6863 C.2     1  UNL11      -0.0765
      5 C           3.8765    2.6546   -9.4501 C.3     1  UNL11      -0.0438
      6 H           4.9081    2.9891   -9.3720 H       1  UNL11       0.0274
      7 H           3.6493    2.5081  -10.5086 H       1  UNL11       0.0274
      8 H           3.2295    3.4536   -9.0873 H       1  UNL11       0.0274
      9 C           4.5330    0.6797   -8.0118 C.2     1  UNL11      -0.0881
     10 H           4.1936   -0.2297   -7.5203 H       1  UNL11       0.0569
     11 C           5.9901    0.9834   -7.8396 C.3     1  UNL11      -0.0466
     12 H           6.2931    1.8904   -8.3563 H       1  UNL11       0.0272
     13 H           6.2359    1.1037   -6.7826 H       1  UNL11       0.0272
     14 H           6.6035    0.1632   -8.2169 H       1  UNL11       0.0272
     15 C           1.8162    5.1009   -6.4003 C.3     1  UNL11      -0.0440
     16 H           1.0476    5.4051   -7.1094 H       1  UNL11       0.0274
     17 H           1.5170    5.4389   -5.4055 H       1  UNL11       0.0274
     18 H           2.7403    5.6280   -6.6486 H       1  UNL11       0.0274
     19 C           2.0287    3.6117   -6.4180 C.2     1  UNL11      -0.0796
     20 C           3.0727    3.1181   -5.4556 C.3     1  UNL11      -0.0440
     21 H           3.2352    2.0462   -5.5187 H       1  UNL11       0.0274
     22 H           4.0267    3.6100   -5.6578 H       1  UNL11       0.0274
     23 H           2.7963    3.3714   -4.4294 H       1  UNL11       0.0274
     24 C           1.3189    2.8274   -7.2519 C.2     1  UNL11      -0.0850
     25 H           0.6074    3.3194   -7.9116 H       1  UNL11       0.0572
     26 C           1.4106    1.3399   -7.4105 C.3     1  UNL11      -0.0308
     27 H           1.9003    0.8835   -6.5498 H       1  UNL11       0.0310
     28 H           0.3990    0.9241   -7.4522 H       1  UNL11       0.0310
@<TRIPOS>BOND
     1     3     1    1
     2     7     5    1
     3     2     1    1
     4     1     4    1
     5     1    26    1
     6    28    26    1
     7     5     4    1
     8     5     8    1
     9     5     6    1
    10     4     9    2
    11    25    24    1
    12    26    24    1
    13    26    27    1
    14     9    10    1
    15     9    11    1
    16    24    19    2
    17    14    11    1
    18    12    11    1
    19    11    13    1
    20    16    15    1
    21    19    15    1
    22    19    20    1
    23    15    18    1
    24    15    17    1
    25    21    20    1
    26    20    22    1
    27    20    23    1
