@<TRIPOS>MOLECULE
/home/jramos/PycharmProjects/GeCos/examples/02-IsoP_trueno_openbabel_mp2/02-IsoP_g16_conformers/02-IsoP_000_gaussian.xyz
 28 27 0 0 0
SMALL
GASTEIGER

@<TRIPOS>ATOM
      1 C           2.1709    1.5000   -8.8506 C.3     1  UNL1       -0.0286
      2 H           1.8192    0.5738   -9.3122 H       1  UNL1        0.0313
      3 H           1.9975    2.3010   -9.5775 H       1  UNL1        0.0313
      4 C           3.6424    1.3916   -8.5458 C.2     1  UNL1       -0.0765
      5 C           4.2882    2.6504   -8.0298 C.3     1  UNL1       -0.0438
      6 H           5.3735    2.6173   -8.0837 H       1  UNL1        0.0274
      7 H           3.9518    3.5092   -8.6141 H       1  UNL1        0.0274
      8 H           4.0124    2.8423   -6.9911 H       1  UNL1        0.0274
      9 C           4.2828    0.2189   -8.7118 C.2     1  UNL1       -0.0881
     10 H           3.6979   -0.6135   -9.0939 H       1  UNL1        0.0569
     11 C           5.7218   -0.0920   -8.4329 C.3     1  UNL1       -0.0466
     12 H           6.2647    0.7595   -8.0308 H       1  UNL1        0.0272
     13 H           5.8036   -0.9065   -7.7109 H       1  UNL1        0.0272
     14 H           6.2318   -0.4202   -9.3404 H       1  UNL1        0.0272
     15 C          -2.3800    2.7102   -8.5205 C.3     1  UNL1       -0.0440
     16 H          -2.6730    1.6616   -8.5381 H       1  UNL1        0.0274
     17 H          -3.0126    3.2303   -7.7976 H       1  UNL1        0.0274
     18 H          -2.5968    3.1431   -9.4997 H       1  UNL1        0.0274
     19 C          -0.9259    2.8719   -8.1727 C.2     1  UNL1       -0.0796
     20 C          -0.4472    4.2964   -8.1217 C.3     1  UNL1       -0.0440
     21 H           0.6153    4.3803   -7.9080 H       1  UNL1        0.0274
     22 H          -0.6376    4.7911   -9.0765 H       1  UNL1        0.0274
     23 H          -0.9943    4.8575   -7.3608 H       1  UNL1        0.0274
     24 C          -0.1504    1.7987   -7.9293 C.2     1  UNL1       -0.0850
     25 H          -0.6115    0.8183   -8.0196 H       1  UNL1        0.0572
     26 C           1.3141    1.7929   -7.6054 C.3     1  UNL1       -0.0308
     27 H           1.6188    2.7418   -7.1635 H       1  UNL1        0.0310
     28 H           1.5194    1.0218   -6.8577 H       1  UNL1        0.0310
@<TRIPOS>BOND
     1     3     1    1
     2    18    15    1
     3    14    11    1
     4     2     1    1
     5    10     9    1
     6    22    20    1
     7     1     4    1
     8     1    26    1
     9     9     4    2
    10     9    11    1
    11     7     5    1
    12     4     5    1
    13    16    15    1
    14    15    19    1
    15    15    17    1
    16    11    12    1
    17    11    13    1
    18    19    20    1
    19    19    24    2
    20    20    21    1
    21    20    23    1
    22     6     5    1
    23     5     8    1
    24    25    24    1
    25    24    26    1
    26    26    27    1
    27    26    28    1
