@<TRIPOS>MOLECULE
/home/jramos/PycharmProjects/GeCos/examples/02-IsoP_trueno_openbabel_mp2/02-IsoP_g16_conformers/02-IsoP_026_gaussian.xyz
 28 27 0 0 0
SMALL
GASTEIGER

@<TRIPOS>ATOM
      1 C           2.3002    0.7360   -8.8605 C.3     1  UNL1       -0.0286
      2 H           2.0410   -0.2940   -8.5924 H       1  UNL1        0.0313
      3 H           2.1583    0.8259   -9.9404 H       1  UNL1        0.0313
      4 C           3.7393    1.0123   -8.5101 C.2     1  UNL1       -0.0765
      5 C           4.1052    0.7902   -7.0663 C.3     1  UNL1       -0.0438
      6 H           5.1795    0.7314   -6.9103 H       1  UNL1        0.0274
      7 H           3.7200    1.5897   -6.4306 H       1  UNL1        0.0274
      8 H           3.6653   -0.1429   -6.7089 H       1  UNL1        0.0274
      9 C           4.5920    1.4544   -9.4536 C.2     1  UNL1       -0.0881
     10 H           4.1984    1.5705  -10.4598 H       1  UNL1        0.0569
     11 C           6.0379    1.8132   -9.2927 C.3     1  UNL1       -0.0466
     12 H           6.3853    1.7060   -8.2683 H       1  UNL1        0.0272
     13 H           6.6668    1.1890   -9.9301 H       1  UNL1        0.0272
     14 H           6.2103    2.8483   -9.5931 H       1  UNL1        0.0272
     15 C          -2.4064    0.5237   -8.5633 C.3     1  UNL1       -0.0440
     16 H          -2.5022    1.0552   -9.5088 H       1  UNL1        0.0274
     17 H          -2.6223   -0.5324   -8.7403 H       1  UNL1        0.0274
     18 H          -3.1762    0.8943   -7.8826 H       1  UNL1        0.0274
     19 C          -1.0366    0.6985   -7.9676 C.2     1  UNL1       -0.0796
     20 C          -0.8292   -0.0026   -6.6537 C.3     1  UNL1       -0.0440
     21 H           0.1813    0.1069   -6.2683 H       1  UNL1        0.0274
     22 H          -1.5248    0.3779   -5.9024 H       1  UNL1        0.0274
     23 H          -1.0335   -1.0700   -6.7611 H       1  UNL1        0.0274
     24 C          -0.1005    1.4369   -8.5929 C.2     1  UNL1       -0.0850
     25 H          -0.3681    1.8758   -9.5509 H       1  UNL1        0.0572
     26 C           1.3115    1.6769   -8.1478 C.3     1  UNL1       -0.0308
     27 H           1.5950    2.7085   -8.3739 H       1  UNL1        0.0310
     28 H           1.4047    1.5597   -7.0680 H       1  UNL1        0.0310
@<TRIPOS>BOND
     1    10     9    1
     2     3     1    1
     3    13    11    1
     4    14    11    1
     5    25    24    1
     6    16    15    1
     7     9    11    1
     8     9     4    2
     9    11    12    1
    10     1     2    1
    11     1     4    1
    12     1    26    1
    13    17    15    1
    14    24    26    1
    15    24    19    2
    16    15    19    1
    17    15    18    1
    18     4     5    1
    19    27    26    1
    20    26    28    1
    21    19    20    1
    22     5     6    1
    23     5     8    1
    24     5     7    1
    25    23    20    1
    26    20    21    1
    27    20    22    1
