@<TRIPOS>MOLECULE
/home/jramos/PycharmProjects/GeCos/examples/02-IsoP_trueno_openbabel_mp2/02-IsoP_g16_conformers/02-IsoP_015_gaussian.xyz
 28 27 0 0 0
SMALL
GASTEIGER

@<TRIPOS>ATOM
      1 C           2.7421    1.4519   -7.9684 C.3     1  UNL11      -0.0286
      2 H           2.5865    1.0415   -6.9641 H       1  UNL11       0.0313
      3 H           1.8367    1.1865   -8.5270 H       1  UNL11       0.0313
      4 C           3.9176    0.7440   -8.6026 C.2     1  UNL11      -0.0765
      5 C           3.7312   -0.7475   -8.6859 C.3     1  UNL11      -0.0438
      6 H           4.5817   -1.2638   -9.1220 H       1  UNL11       0.0274
      7 H           3.5598   -1.1626   -7.6905 H       1  UNL11       0.0274
      8 H           2.8492   -0.9859   -9.2841 H       1  UNL11       0.0274
      9 C           5.0075    1.4036   -9.0359 C.2     1  UNL11      -0.0881
     10 H           5.0259    2.4813   -8.9204 H       1  UNL11       0.0569
     11 C           6.2358    0.8301   -9.6770 C.3     1  UNL11      -0.0466
     12 H           6.1930   -0.2499   -9.7886 H       1  UNL11       0.0272
     13 H           6.3873    1.2615  -10.6681 H       1  UNL11       0.0272
     14 H           7.1232    1.0696   -9.0884 H       1  UNL11       0.0272
     15 C           0.0239    4.4871   -5.5710 C.3     1  UNL11      -0.0440
     16 H          -0.6976    4.4674   -6.3863 H       1  UNL11       0.0274
     17 H          -0.3755    3.8938   -4.7454 H       1  UNL11       0.0274
     18 H           0.1058    5.5152   -5.2112 H       1  UNL11       0.0274
     19 C           1.3653    3.9645   -6.0068 C.2     1  UNL11      -0.0796
     20 C           2.4167    3.9643   -4.9320 C.3     1  UNL11      -0.0440
     21 H           3.3653    3.5510   -5.2642 H       1  UNL11       0.0274
     22 H           2.5941    4.9798   -4.5709 H       1  UNL11       0.0274
     23 H           2.0770    3.3795   -4.0744 H       1  UNL11       0.0274
     24 C           1.5630    3.5440   -7.2703 C.2     1  UNL11      -0.0850
     25 H           0.7125    3.5802   -7.9467 H       1  UNL11       0.0572
     26 C           2.8216    2.9761   -7.8566 C.3     1  UNL11      -0.0308
     27 H           2.9747    3.4018   -8.8518 H       1  UNL11       0.0310
     28 H           3.6925    3.2535   -7.2625 H       1  UNL11       0.0310
@<TRIPOS>BOND
     1     8     5    1
     2     3     1    1
     3     5     6    1
     4     5     7    1
     5     5     4    1
     6    25    24    1
     7    16    15    1
     8     1     4    1
     9     1     2    1
    10     1    26    1
    11     4     9    2
    12    24    26    1
    13    24    19    2
    14    27    26    1
    15    17    15    1
    16    15    19    1
    17    15    18    1
    18    12    11    1
    19    26    28    1
    20     9    11    1
    21     9    10    1
    22    13    11    1
    23    19    20    1
    24    11    14    1
    25    23    20    1
    26    20    21    1
    27    20    22    1
