@<TRIPOS>MOLECULE
/home/jramos/PycharmProjects/GeCos/examples/02-IsoP_trueno_openbabel_mp2/02-IsoP_g16_conformers/02-IsoP_005_gaussian.xyz
 28 27 0 0 0
SMALL
GASTEIGER

@<TRIPOS>ATOM
      1 C           2.2255    1.3246   -8.9651 C.3     1  UNL1       -0.0286
      2 H           1.9768    0.3250   -9.3290 H       1  UNL1        0.0313
      3 H           2.0079    2.0223   -9.7816 H       1  UNL1        0.0313
      4 C           3.6888    1.3936   -8.6116 C.2     1  UNL1       -0.0765
      5 C           4.2038    2.7605   -8.2454 C.3     1  UNL1       -0.0438
      6 H           5.2894    2.8168   -8.2607 H       1  UNL1        0.0274
      7 H           3.8217    3.5041   -8.9472 H       1  UNL1        0.0274
      8 H           3.8694    3.0588   -7.2500 H       1  UNL1        0.0274
      9 C           4.4336    0.2719   -8.6082 C.2     1  UNL1       -0.0881
     10 H           3.9375   -0.6511   -8.8961 H       1  UNL1        0.0569
     11 C           5.8826    0.1293   -8.2539 C.3     1  UNL1       -0.0466
     12 H           6.3343    1.0695   -7.9479 H       1  UNL1        0.0272
     13 H           6.0071   -0.5793   -7.4331 H       1  UNL1        0.0272
     14 H           6.4531   -0.2606   -9.0989 H       1  UNL1        0.0272
     15 C          -2.4337    0.6677   -8.4215 C.3     1  UNL1       -0.0440
     16 H          -2.6206    1.5968   -8.9578 H       1  UNL1        0.0274
     17 H          -2.6621   -0.1657   -9.0898 H       1  UNL1        0.0274
     18 H          -3.1368    0.6063   -7.5877 H       1  UNL1        0.0274
     19 C          -1.0141    0.5879   -7.9312 C.2     1  UNL1       -0.0796
     20 C          -0.6817   -0.6692   -7.1764 C.3     1  UNL1       -0.0440
     21 H           0.3585   -0.7162   -6.8652 H       1  UNL1        0.0274
     22 H          -1.3090   -0.7581   -6.2867 H       1  UNL1        0.0274
     23 H          -0.8874   -1.5447   -7.7961 H       1  UNL1        0.0274
     24 C          -0.1457    1.5888   -8.1693 C.2     1  UNL1       -0.0850
     25 H          -0.5083    2.4369   -8.7452 H       1  UNL1        0.0572
     26 C           1.3006    1.6530   -7.7788 C.3     1  UNL1       -0.0308
     27 H           1.5247    2.6574   -7.4107 H       1  UNL1        0.0310
     28 H           1.5263    0.9662   -6.9620 H       1  UNL1        0.0310
@<TRIPOS>BOND
     1     3     1    1
     2     2     1    1
     3    14    11    1
     4    17    15    1
     5     1     4    1
     6     1    26    1
     7    16    15    1
     8     7     5    1
     9    10     9    1
    10    25    24    1
    11     4     9    2
    12     4     5    1
    13     9    11    1
    14    15    19    1
    15    15    18    1
    16     6     5    1
    17    11    12    1
    18    11    13    1
    19     5     8    1
    20    24    19    2
    21    24    26    1
    22    19    20    1
    23    23    20    1
    24    26    27    1
    25    26    28    1
    26    20    21    1
    27    20    22    1
