@<TRIPOS>MOLECULE
/home/jramos/PycharmProjects/GeCos/examples/02-IsoP_trueno_openbabel_mp2/02-IsoP_g16_conformers/02-IsoP_008_gaussian.xyz
 28 27 0 0 0
SMALL
GASTEIGER

@<TRIPOS>ATOM
      1 C           2.4200    1.0067   -8.2564 C.3     1  UNL11      -0.0286
      2 H           2.1659    0.5139   -7.3138 H       1  UNL11       0.0313
      3 H           2.0219    0.3833   -9.0612 H       1  UNL11       0.0313
      4 C           3.9239    1.1133   -8.3866 C.2     1  UNL11      -0.0765
      5 C           4.6895    1.1144   -7.0918 C.3     1  UNL11      -0.0438
      6 H           5.7480    1.3264   -7.2216 H       1  UNL11       0.0274
      7 H           4.2718    1.8545   -6.4088 H       1  UNL11       0.0274
      8 H           4.5980    0.1415   -6.6032 H       1  UNL11       0.0274
      9 C           4.4749    1.2048   -9.6117 C.2     1  UNL11      -0.0881
     10 H           3.7952    1.1681  -10.4601 H       1  UNL11       0.0569
     11 C           5.9229    1.3503   -9.9685 C.3     1  UNL11      -0.0466
     12 H           6.5682    1.3886   -9.0946 H       1  UNL11       0.0272
     13 H           6.2528    0.5154  -10.5896 H       1  UNL11       0.0272
     14 H           6.0885    2.2608  -10.5472 H       1  UNL11       0.0272
     15 C           2.3258    4.5813   -5.1255 C.3     1  UNL11      -0.0440
     16 H           3.2210    5.0227   -5.5613 H       1  UNL11       0.0274
     17 H           1.6311    5.3878   -4.8798 H       1  UNL11       0.0274
     18 H           2.6026    4.1043   -4.1825 H       1  UNL11       0.0274
     19 C           1.6872    3.5916   -6.0607 C.2     1  UNL11      -0.0796
     20 C           0.4413    2.9384   -5.5305 C.3     1  UNL11      -0.0440
     21 H           0.0168    2.2130   -6.2197 H       1  UNL11       0.0274
     22 H           0.6569    2.4235   -4.5917 H       1  UNL11       0.0274
     23 H          -0.3210    3.6891   -5.3108 H       1  UNL11       0.0274
     24 C           2.2230    3.3399   -7.2705 C.2     1  UNL11      -0.0850
     25 H           3.1377    3.8652   -7.5308 H       1  UNL11       0.0572
     26 C           1.7161    2.3773   -8.3043 C.3     1  UNL11      -0.0308
     27 H           0.6391    2.2283   -8.2060 H       1  UNL11       0.0310
     28 H           1.8838    2.8059   -9.2956 H       1  UNL11       0.0310
@<TRIPOS>BOND
     1     3     1    1
     2     2     1    1
     3     1     4    1
     4     1    26    1
     5    13    11    1
     6    10     9    1
     7     8     5    1
     8     9     4    2
     9     9    11    1
    10     4     5    1
    11    27    26    1
    12    11    12    1
    13    11    14    1
    14     5     6    1
    15     5     7    1
    16    21    20    1
    17    26    28    1
    18    26    24    1
    19    22    20    1
    20    20    23    1
    21    20    19    1
    22    24    19    2
    23    24    25    1
    24    19    15    1
    25    18    15    1
    26    15    16    1
    27    15    17    1
