@<TRIPOS>MOLECULE
/home/jramos/PycharmProjects/GeCos/examples/02-IsoP_trueno_openbabel_mp2/02-IsoP_g16_conformers/02-IsoP_019_gaussian.xyz
 28 27 0 0 0
SMALL
GASTEIGER

@<TRIPOS>ATOM
      1 C           2.7428    1.7236   -8.2910 C.3     1  UNL11      -0.0286
      2 H           1.8365    1.1300   -8.4603 H       1  UNL11       0.0313
      3 H           2.5901    2.6445   -8.8654 H       1  UNL11       0.0313
      4 C           3.9182    0.9769   -8.8788 C.2     1  UNL11      -0.0765
      5 C           3.7347    0.6434  -10.3352 C.3     1  UNL11      -0.0438
      6 H           4.5852    0.1246  -10.7686 H       1  UNL11       0.0274
      7 H           2.8517    0.0156  -10.4716 H       1  UNL11       0.0274
      8 H           3.5668    1.5549  -10.9128 H       1  UNL11       0.0274
      9 C           5.0056    0.6588   -8.1529 C.2     1  UNL11      -0.0881
     10 H           5.0220    0.9543   -7.1100 H       1  UNL11       0.0569
     11 C           6.2335   -0.0725   -8.6069 C.3     1  UNL11      -0.0466
     12 H           6.1928   -0.3647   -9.6526 H       1  UNL11       0.0272
     13 H           7.1220    0.5463   -8.4678 H       1  UNL11       0.0272
     14 H           6.3817   -0.9768   -8.0140 H       1  UNL11       0.0272
     15 C           0.0241    4.6043   -5.7103 C.3     1  UNL11      -0.0440
     16 H          -0.6993    3.7988   -5.5940 H       1  UNL11       0.0274
     17 H           0.1045    5.1325   -4.7574 H       1  UNL11       0.0274
     18 H          -0.3721    5.3189   -6.4354 H       1  UNL11       0.0274
     19 C           1.3656    4.0840   -6.1482 C.2     1  UNL11      -0.0796
     20 C           2.4196    5.1413   -6.3266 C.3     1  UNL11      -0.0440
     21 H           3.3684    4.7425   -6.6756 H       1  UNL11       0.0274
     22 H           2.0834    5.8889   -7.0482 H       1  UNL11       0.0274
     23 H           2.5955    5.6677   -5.3858 H       1  UNL11       0.0274
     24 C           1.5611    2.7674   -6.3494 C.2     1  UNL11      -0.0850
     25 H           0.7088    2.1085   -6.2022 H       1  UNL11       0.0572
     26 C           2.8194    2.0910   -6.8072 C.3     1  UNL11      -0.0308
     27 H           3.6912    2.7217   -6.6321 H       1  UNL11       0.0310
     28 H           2.9694    1.1817   -6.2193 H       1  UNL11       0.0310
@<TRIPOS>BOND
     1     8     5    1
     2    18    15    1
     3    22    20    1
     4     7     5    1
     5     3     1    1
     6     5     6    1
     7     5     4    1
     8    15    16    1
     9    15    19    1
    10    15    17    1
    11     2     1    1
    12    20    19    1
    13    20    21    1
    14    20    23    1
    15     1     4    1
    16     1    26    1
    17    19    24    2
    18     4     9    2
    19    24    25    1
    20    24    26    1
    21    26    27    1
    22    26    28    1
    23    12    11    1
    24     9    11    1
    25     9    10    1
    26    11    13    1
    27    11    14    1
