@<TRIPOS>MOLECULE
/home/jramos/PycharmProjects/GeCos/examples/02-IsoP_trueno_openbabel_mp2/02-IsoP_g16_conformers/02-IsoP_015_gaussian.xyz
 28 27 0 0 0
SMALL
GASTEIGER

@<TRIPOS>ATOM
      1 C           2.0669    1.4256   -8.5823 C.3     1  UNL1       -0.0286
      2 H           1.5711    0.4855   -8.3145 H       1  UNL1        0.0313
      3 H           1.8696    1.5557   -9.6530 H       1  UNL1        0.0313
      4 C           3.5568    1.2579   -8.3895 C.2     1  UNL1       -0.0765
      5 C           4.1321    0.1297   -9.2033 C.3     1  UNL1       -0.0438
      6 H           5.1991   -0.0089   -9.0530 H       1  UNL1        0.0274
      7 H           3.6325   -0.8087   -8.9537 H       1  UNL1        0.0274
      8 H           3.9617    0.3054  -10.2676 H       1  UNL1        0.0274
      9 C           4.2700    2.0476   -7.5659 C.2     1  UNL1       -0.0881
     10 H           3.7420    2.8286   -7.0308 H       1  UNL1        0.0569
     11 C           5.7413    1.9905   -7.2819 C.3     1  UNL1       -0.0466
     12 H           6.2512    1.2052   -7.8333 H       1  UNL1        0.0272
     13 H           6.2175    2.9391   -7.5364 H       1  UNL1        0.0272
     14 H           5.9205    1.8216   -6.2185 H       1  UNL1        0.0272
     15 C          -2.5221    2.3482   -7.9203 C.3     1  UNL1       -0.0440
     16 H          -2.5544    2.8302   -8.8962 H       1  UNL1        0.0274
     17 H          -3.0059    1.3724   -8.0038 H       1  UNL1        0.0274
     18 H          -3.1224    2.9405   -7.2260 H       1  UNL1        0.0274
     19 C          -1.1108    2.2058   -7.4202 C.2     1  UNL1       -0.0796
     20 C          -0.9869    1.5500   -6.0729 C.3     1  UNL1       -0.0440
     21 H           0.0441    1.4295   -5.7511 H       1  UNL1        0.0274
     22 H          -1.5157    2.1318   -5.3147 H       1  UNL1        0.0274
     23 H          -1.4508    0.5615   -6.0923 H       1  UNL1        0.0274
     24 C          -0.0724    2.6482   -8.1540 C.2     1  UNL1       -0.0850
     25 H          -0.2978    3.0889   -9.1221 H       1  UNL1        0.0572
     26 C           1.3865    2.5620   -7.8156 C.3     1  UNL1       -0.0308
     27 H           1.8686    3.5086   -8.0737 H       1  UNL1        0.0310
     28 H           1.5343    2.4195   -6.7450 H       1  UNL1        0.0310
@<TRIPOS>BOND
     1     8     5    1
     2     3     1    1
     3     5     6    1
     4     5     7    1
     5     5     4    1
     6    25    24    1
     7    16    15    1
     8     1     4    1
     9     1     2    1
    10     1    26    1
    11     4     9    2
    12    24    26    1
    13    24    19    2
    14    27    26    1
    15    17    15    1
    16    15    19    1
    17    15    18    1
    18    12    11    1
    19    26    28    1
    20     9    11    1
    21     9    10    1
    22    13    11    1
    23    19    20    1
    24    11    14    1
    25    23    20    1
    26    20    21    1
    27    20    22    1
