@<TRIPOS>MOLECULE
/home/jramos/PycharmProjects/GeCos/examples/02-IsoP_trueno_openbabel_mp2/02-IsoP_g16_conformers/02-IsoP_004_gaussian.xyz
 28 27 0 0 0
SMALL
GASTEIGER

@<TRIPOS>ATOM
      1 C           2.2370    1.1961   -8.9945 C.3     1  UNL11      -0.0286
      2 H           1.9043    0.1868   -9.2612 H       1  UNL11       0.0313
      3 H           2.1357    1.8124   -9.8915 H       1  UNL11       0.0313
      4 C           3.6820    1.1626   -8.5694 C.2     1  UNL11      -0.0765
      5 C           3.9701    0.3333   -7.3479 C.3     1  UNL11      -0.0438
      6 H           5.0303    0.1329   -7.2158 H       1  UNL11       0.0274
      7 H           3.6089    0.8351   -6.4481 H       1  UNL11       0.0274
      8 H           3.4544   -0.6270   -7.4130 H       1  UNL11       0.0274
      9 C           4.6051    1.8652   -9.2522 C.2     1  UNL11      -0.0881
     10 H           4.2587    2.4298  -10.1135 H       1  UNL11       0.0569
     11 C           6.0725    1.9764   -8.9706 C.3     1  UNL11      -0.0466
     12 H           6.3767    1.4064   -8.0966 H       1  UNL11       0.0272
     13 H           6.6594    1.6274   -9.8224 H       1  UNL11       0.0272
     14 H           6.3503    3.0179   -8.7988 H       1  UNL11       0.0272
     15 C           2.4299    4.9582   -5.9563 C.3     1  UNL11      -0.0440
     16 H           2.5341    5.5136   -6.8870 H       1  UNL11       0.0274
     17 H           1.7222    5.4904   -5.3163 H       1  UNL11       0.0274
     18 H           3.3932    4.9699   -5.4414 H       1  UNL11       0.0274
     19 C           1.9739    3.5461   -6.2033 C.2     1  UNL11      -0.0796
     20 C           1.8074    2.7210   -4.9571 C.3     1  UNL11      -0.0440
     21 H           1.4769    1.7052   -5.1566 H       1  UNL11       0.0274
     22 H           2.7485    2.6719   -4.4047 H       1  UNL11       0.0274
     23 H           1.0762    3.1866   -4.2923 H       1  UNL11       0.0274
     24 C           1.7405    3.1114   -7.4559 C.2     1  UNL11      -0.0850
     25 H           1.8956    3.8225   -8.2646 H       1  UNL11       0.0572
     26 C           1.3063    1.7478   -7.8993 C.3     1  UNL11      -0.0308
     27 H           1.2754    1.0514   -7.0616 H       1  UNL11       0.0310
     28 H           0.2886    1.7913   -8.3012 H       1  UNL11       0.0310
@<TRIPOS>BOND
     1     3     1    1
     2    10     9    1
     3     2     1    1
     4     1     4    1
     5     1    26    1
     6    13    11    1
     7     9     4    2
     8     9    11    1
     9    28    26    1
    10    25    24    1
    11     4     5    1
    12    11    14    1
    13    11    12    1
    14    26    24    1
    15    26    27    1
    16    24    19    2
    17    16    15    1
    18     8     5    1
    19     5     6    1
    20     5     7    1
    21    19    15    1
    22    19    20    1
    23    15    17    1
    24    15    18    1
    25    21    20    1
    26    20    23    1
    27    20    22    1
