@<TRIPOS>MOLECULE
/home/jramos/PycharmProjects/GeCos/examples/02-IsoP_trueno_openbabel_mp2/02-IsoP_g16_conformers/02-IsoP_028_gaussian.xyz
 28 27 0 0 0
SMALL
GASTEIGER

@<TRIPOS>ATOM
      1 C           2.1457    1.2442   -8.9843 C.3     1  UNL1       -0.0286
      2 H           1.8112    0.2842   -9.3902 H       1  UNL1        0.0313
      3 H           2.0900    1.9723   -9.7971 H       1  UNL1        0.0313
      4 C           3.5660    1.1221   -8.4967 C.2     1  UNL1       -0.0765
      5 C           3.8848   -0.1646   -7.7852 C.3     1  UNL1       -0.0438
      6 H           4.8588   -0.1563   -7.3027 H       1  UNL1        0.0274
      7 H           3.1374   -0.3764   -7.0182 H       1  UNL1        0.0274
      8 H           3.8621   -1.0014   -8.4870 H       1  UNL1        0.0274
      9 C           4.4346    2.1331   -8.6893 C.2     1  UNL1       -0.0881
     10 H           4.0659    3.0000   -9.2302 H       1  UNL1        0.0569
     11 C           5.8619    2.2231   -8.2430 C.3     1  UNL1       -0.0466
     12 H           6.1963    1.3319   -7.7179 H       1  UNL1        0.0272
     13 H           6.5251    2.3747   -9.0967 H       1  UNL1        0.0272
     14 H           6.0027    3.0772   -7.5772 H       1  UNL1        0.0272
     15 C           2.3318    5.0336   -6.2034 C.3     1  UNL1       -0.0440
     16 H           1.8001    5.6235   -6.9486 H       1  UNL1        0.0274
     17 H           1.9680    5.3219   -5.2145 H       1  UNL1        0.0274
     18 H           3.3894    5.3051   -6.2429 H       1  UNL1        0.0274
     19 C           2.1523    3.5584   -6.4339 C.2     1  UNL1       -0.0796
     20 C           2.8651    2.6780   -5.4468 C.3     1  UNL1       -0.0440
     21 H           2.6721    1.6210   -5.6067 H       1  UNL1        0.0274
     22 H           3.9439    2.8335   -5.5161 H       1  UNL1        0.0274
     23 H           2.5688    2.9316   -4.4263 H       1  UNL1        0.0274
     24 C           1.4071    3.1073   -7.4604 C.2     1  UNL1       -0.0850
     25 H           0.9607    3.8513   -8.1159 H       1  UNL1        0.0572
     26 C           1.1754    1.6829   -7.8635 C.3     1  UNL1       -0.0308
     27 H           1.2710    1.0065   -7.0129 H       1  UNL1        0.0310
     28 H           0.1502    1.5761   -8.2280 H       1  UNL1        0.0310
@<TRIPOS>BOND
     1     3     1    1
     2     2     1    1
     3    10     9    1
     4    13    11    1
     5     1     4    1
     6     1    26    1
     7     9     4    2
     8     9    11    1
     9     4     5    1
    10     8     5    1
    11    11    12    1
    12    11    14    1
    13    28    26    1
    14    25    24    1
    15    26    24    1
    16    26    27    1
    17     5     6    1
    18     5     7    1
    19    24    19    2
    20    16    15    1
    21    19    15    1
    22    19    20    1
    23    18    15    1
    24    15    17    1
    25    21    20    1
    26    22    20    1
    27    20    23    1
