@<TRIPOS>MOLECULE
/home/jramos/PycharmProjects/GeCos/examples/02-IsoP_trueno_openbabel_mp2/02-IsoP_g16_conformers/02-IsoP_034_gaussian.xyz
 28 27 0 0 0
SMALL
GASTEIGER

@<TRIPOS>ATOM
      1 C           2.1896    1.1671   -8.9415 C.3     1  UNL11      -0.0286
      2 H           1.5753    0.3404   -8.5736 H       1  UNL11       0.0313
      3 H           2.2335    1.0679  -10.0291 H       1  UNL11       0.0313
      4 C           3.5834    1.0702   -8.3605 C.2     1  UNL11      -0.0765
      5 C           3.7000    0.3227   -7.0615 C.3     1  UNL11      -0.0438
      6 H           4.7071    0.3342   -6.6519 H       1  UNL11       0.0274
      7 H           3.0249    0.7534   -6.3215 H       1  UNL11       0.0274
      8 H           3.4054   -0.7197   -7.2022 H       1  UNL11       0.0274
      9 C           4.6068    1.6556   -9.0112 C.2     1  UNL11      -0.0881
     10 H           4.3732    2.1465   -9.9537 H       1  UNL11       0.0569
     11 C           6.0463    1.7284   -8.6021 C.3     1  UNL11      -0.0466
     12 H           6.2427    1.2115   -7.6663 H       1  UNL11       0.0272
     13 H           6.6887    1.2891   -9.3674 H       1  UNL11       0.0272
     14 H           6.3603    2.7671   -8.4818 H       1  UNL11       0.0272
     15 C           1.7015    3.5803   -4.8430 C.3     1  UNL11      -0.0440
     16 H           0.8615    2.9379   -4.5824 H       1  UNL11       0.0274
     17 H           2.5631    3.2791   -4.2426 H       1  UNL11       0.0274
     18 H           1.4540    4.6031   -4.5495 H       1  UNL11       0.0274
     19 C           2.0210    3.5074   -6.3112 C.2     1  UNL11      -0.0796
     20 C           3.1679    4.3767   -6.7451 C.3     1  UNL11      -0.0440
     21 H           3.4033    4.2736   -7.8002 H       1  UNL11       0.0274
     22 H           2.9521    5.4269   -6.5345 H       1  UNL11       0.0274
     23 H           4.0655    4.1177   -6.1790 H       1  UNL11       0.0274
     24 C           1.3099    2.7071   -7.1288 C.2     1  UNL11      -0.0850
     25 H           0.5164    2.1150   -6.6779 H       1  UNL11       0.0572
     26 C           1.4984    2.5026   -8.6015 C.3     1  UNL11      -0.0308
     27 H           0.5200    2.5242   -9.0914 H       1  UNL11       0.0310
     28 H           2.0839    3.3123   -9.0379 H       1  UNL11       0.0310
@<TRIPOS>BOND
     1     3     1    1
     2    13    11    1
     3    10     9    1
     4     2     1    1
     5     8     5    1
     6     1     4    1
     7     1    26    1
     8     9     4    2
     9     9    11    1
    10     4     5    1
    11    11    12    1
    12    11    14    1
    13     5     6    1
    14     5     7    1
    15    27    26    1
    16    26    28    1
    17    26    24    1
    18    24    25    1
    19    24    19    2
    20    21    20    1
    21    19    20    1
    22    19    15    1
    23    20    23    1
    24    20    22    1
    25    16    15    1
    26    15    17    1
    27    15    18    1
