@<TRIPOS>MOLECULE
/home/jramos/PycharmProjects/GeCos/examples/02-IsoP_trueno_openbabel_mp2/02-IsoP_g16_conformers/02-IsoP_040_gaussian.xyz
 28 27 0 0 0
SMALL
GASTEIGER

@<TRIPOS>ATOM
      1 C           2.2609    1.0655   -8.8724 C.3     1  UNL1       -0.0286
      2 H           1.9949    0.0034   -8.9367 H       1  UNL1        0.0313
      3 H           1.9709    1.4917   -9.8399 H       1  UNL1        0.0313
      4 C           3.7638    1.1704   -8.7465 C.2     1  UNL1       -0.0765
      5 C           4.4962    0.3948   -9.8084 C.3     1  UNL1       -0.0438
      6 H           5.5750    0.5148   -9.7619 H       1  UNL1        0.0274
      7 H           4.2722   -0.6708   -9.7221 H       1  UNL1        0.0274
      8 H           4.1660    0.7076  -10.8014 H       1  UNL1        0.0274
      9 C           4.3591    1.9059   -7.7901 C.2     1  UNL1       -0.0881
     10 H           3.7233    2.4071   -7.0714 H       1  UNL1        0.0569
     11 C           5.8275    2.1091   -7.5664 C.3     1  UNL1       -0.0466
     12 H           6.4461    1.5997   -8.3005 H       1  UNL1        0.0272
     13 H           6.0767    3.1713   -7.5999 H       1  UNL1        0.0272
     14 H           6.1169    1.7470   -6.5780 H       1  UNL1        0.0272
     15 C           1.8462    0.6828   -4.0138 C.3     1  UNL1       -0.0440
     16 H           1.7606   -0.3728   -4.2673 H       1  UNL1        0.0274
     17 H           2.8050    0.8377   -3.5135 H       1  UNL1        0.0274
     18 H           1.0673    0.9252   -3.2873 H       1  UNL1        0.0274
     19 C           1.7335    1.5551   -5.2338 C.2     1  UNL1       -0.0796
     20 C           1.8476    3.0289   -4.9594 C.3     1  UNL1       -0.0440
     21 H           1.7488    3.6389   -5.8535 H       1  UNL1        0.0274
     22 H           1.0763    3.3435   -4.2530 H       1  UNL1        0.0274
     23 H           2.8109    3.2555   -4.4961 H       1  UNL1        0.0274
     24 C           1.5545    1.0121   -6.4521 C.2     1  UNL1       -0.0850
     25 H           1.4860   -0.0725   -6.5074 H       1  UNL1        0.0572
     26 C           1.4140    1.7111   -7.7727 C.3     1  UNL1       -0.0308
     27 H           0.3678    1.6624   -8.0928 H       1  UNL1        0.0310
     28 H           1.6593    2.7706   -7.6964 H       1  UNL1        0.0310
@<TRIPOS>BOND
     1     8     5    1
     2     3     1    1
     3     5     6    1
     4     5     7    1
     5     5     4    1
     6     2     1    1
     7     1     4    1
     8     1    26    1
     9     4     9    2
    10    12    11    1
    11    27    26    1
    12     9    11    1
    13     9    10    1
    14    26    28    1
    15    26    24    1
    16    13    11    1
    17    11    14    1
    18    25    24    1
    19    24    19    2
    20    21    20    1
    21    19    20    1
    22    19    15    1
    23    20    23    1
    24    20    22    1
    25    16    15    1
    26    15    17    1
    27    15    18    1
