@<TRIPOS>MOLECULE
/home/jramos/PycharmProjects/GeCos/examples/02-IsoP_trueno_openbabel_mp2/02-IsoP_g16_conformers/02-IsoP_039_gaussian.xyz
 28 27 0 0 0
SMALL
GASTEIGER

@<TRIPOS>ATOM
      1 C           2.4031    0.9543   -7.9921 C.3     1  UNL11      -0.0286
      2 H           2.3282    0.7133   -6.9263 H       1  UNL11       0.0313
      3 H           1.8793    0.1449   -8.5155 H       1  UNL11       0.0313
      4 C           3.8639    0.9035   -8.3824 C.2     1  UNL11      -0.0765
      5 C           4.5840   -0.2842   -7.8030 C.3     1  UNL11      -0.0438
      6 H           5.5911   -0.4097   -8.1909 H       1  UNL11       0.0274
      7 H           4.6466   -0.1976   -6.7160 H       1  UNL11       0.0274
      8 H           4.0271   -1.1992   -8.0162 H       1  UNL11       0.0274
      9 C           4.4306    1.8167   -9.1915 C.2     1  UNL11      -0.0881
     10 H           3.8068    2.6238   -9.5585 H       1  UNL11       0.0569
     11 C           5.8509    1.8675   -9.6695 C.3     1  UNL11      -0.0466
     12 H           6.4652    1.0702   -9.2601 H       1  UNL11       0.0272
     13 H           5.8944    1.7991  -10.7582 H       1  UNL11       0.0272
     14 H           6.3127    2.8170   -9.3931 H       1  UNL11       0.0272
     15 C           2.4101    4.8825   -5.4039 C.3     1  UNL11      -0.0440
     16 H           3.2071    5.3433   -5.9856 H       1  UNL11       0.0274
     17 H           1.6737    5.6522   -5.1612 H       1  UNL11       0.0274
     18 H           2.8323    4.5387   -4.4569 H       1  UNL11       0.0274
     19 C           1.7696    3.7449   -6.1502 C.2     1  UNL11      -0.0796
     20 C           0.6570    3.0563   -5.4093 C.3     1  UNL11      -0.0440
     21 H           0.2168    2.2356   -5.9699 H       1  UNL11       0.0274
     22 H           1.0257    2.6559   -4.4624 H       1  UNL11       0.0274
     23 H          -0.1358    3.7666   -5.1639 H       1  UNL11       0.0274
     24 C           2.1942    3.4005   -7.3807 C.2     1  UNL11      -0.0850
     25 H           3.0219    3.9659   -7.7954 H       1  UNL11       0.0572
     26 C           1.6613    2.2761   -8.2237 C.3     1  UNL11      -0.0308
     27 H           0.6037    2.1112   -8.0118 H       1  UNL11       0.0310
     28 H           1.7122    2.5496   -9.2800 H       1  UNL11       0.0310
@<TRIPOS>BOND
     1     8     5    1
     2     3     1    1
     3     7     5    1
     4     5     6    1
     5     5     4    1
     6     2     1    1
     7     1     4    1
     8     1    26    1
     9     4     9    2
    10    21    20    1
    11    27    26    1
    12    22    20    1
    13    12    11    1
    14    26    28    1
    15    26    24    1
    16     9    11    1
    17     9    10    1
    18    20    23    1
    19    20    19    1
    20    11    13    1
    21    11    14    1
    22    24    19    2
    23    24    25    1
    24    19    15    1
    25    18    15    1
    26    15    17    1
    27    15    16    1
