@<TRIPOS>MOLECULE
/home/jramos/PycharmProjects/GeCos/examples/02-IsoP_trueno_openbabel_mp2/02-IsoP_g16_conformers/02-IsoP_012_gaussian.xyz
 28 27 0 0 0
SMALL
GASTEIGER

@<TRIPOS>ATOM
      1 C           2.2861    1.4454   -8.7807 C.3     1  UNL11      -0.0286
      2 H           1.7791    0.7279   -9.4358 H       1  UNL11       0.0313
      3 H           2.2149    2.4264   -9.2560 H       1  UNL11       0.0313
      4 C           3.7355    1.0605   -8.6333 C.2     1  UNL11      -0.0765
      5 C           3.9811   -0.3369   -8.1311 C.3     1  UNL11      -0.0438
      6 H           5.0188   -0.6441   -8.2322 H       1  UNL11       0.0274
      7 H           3.7074   -0.4325   -7.0782 H       1  UNL11       0.0274
      8 H           3.3661   -1.0486   -8.6855 H       1  UNL11       0.0274
      9 C           4.7029    1.9540   -8.9138 C.2     1  UNL11      -0.0881
     10 H           4.3831    2.9318   -9.2631 H       1  UNL11       0.0569
     11 C           6.1862    1.7757   -8.8000 C.3     1  UNL11      -0.0466
     12 H           6.4654    0.7909   -8.4340 H       1  UNL11       0.0272
     13 H           6.6706    1.9257   -9.7667 H       1  UNL11       0.0272
     14 H           6.6077    2.5145   -8.1160 H       1  UNL11       0.0272
     15 C           2.6319    4.5771   -5.2722 C.3     1  UNL11      -0.0440
     16 H           3.4446    4.0126   -4.8177 H       1  UNL11       0.0274
     17 H           3.0578    5.4537   -5.7656 H       1  UNL11       0.0274
     18 H           1.9831    4.9470   -4.4748 H       1  UNL11       0.0274
     19 C           1.8554    3.7371   -6.2484 C.2     1  UNL11      -0.0796
     20 C           0.7139    4.4491   -6.9195 C.3     1  UNL11      -0.0440
     21 H           0.1856    3.8252   -7.6358 H       1  UNL11       0.0274
     22 H          -0.0062    4.8027   -6.1780 H       1  UNL11       0.0274
     23 H           1.0804    5.3314   -7.4488 H       1  UNL11       0.0274
     24 C           2.1925    2.4534   -6.4741 C.2     1  UNL11      -0.0850
     25 H           3.0557    2.0651   -5.9413 H       1  UNL11       0.0572
     26 C           1.5394    1.5028   -7.4333 C.3     1  UNL11      -0.0308
     27 H           1.5128    0.5041   -6.9904 H       1  UNL11       0.0310
     28 H           0.5007    1.7800   -7.6178 H       1  UNL11       0.0310
@<TRIPOS>BOND
     1    10     9    1
     2    23    20    1
     3     3     1    1
     4    13    11    1
     5    21    20    1
     6     9    11    1
     7     9     4    2
     8    20    22    1
     9    20    19    1
    10     2     1    1
    11    11    14    1
    12    11    12    1
    13     1     4    1
    14     1    26    1
    15    17    15    1
    16     4     5    1
    17    28    26    1
    18    19    15    1
    19    19    24    2
    20    26    24    1
    21    26    27    1
    22    15    18    1
    23    15    16    1
    24    24    25    1
    25     8     5    1
    26     5     6    1
    27     5     7    1
