@<TRIPOS>MOLECULE
/home/jramos/PycharmProjects/GeCos/examples/02-IsoP_trueno_openbabel_mp2/02-IsoP_g16_conformers/02-IsoP_036_gaussian.xyz
 28 27 0 0 0
SMALL
GASTEIGER

@<TRIPOS>ATOM
      1 C           2.1450    1.1659   -8.9686 C.3     1  UNL1       -0.0286
      2 H           1.8417    0.1186   -9.0393 H       1  UNL1        0.0313
      3 H           1.8659    1.6450   -9.9124 H       1  UNL1        0.0313
      4 C           3.6358    1.2599   -8.7726 C.2     1  UNL1       -0.0765
      5 C           4.2479    2.5736   -9.1765 C.3     1  UNL1       -0.0438
      6 H           5.2864    2.6731   -8.8713 H       1  UNL1        0.0274
      7 H           4.2007    2.6962  -10.2609 H       1  UNL1        0.0274
      8 H           3.6937    3.4072   -8.7408 H       1  UNL1        0.0274
      9 C           4.3138    0.2219   -8.2468 C.2     1  UNL1       -0.0881
     10 H           3.7399   -0.6699   -8.0115 H       1  UNL1        0.0569
     11 C           5.7763    0.1369   -7.9330 C.3     1  UNL1       -0.0466
     12 H           6.3167    1.0434   -8.1940 H       1  UNL1        0.0272
     13 H           5.9300   -0.0503   -6.8682 H       1  UNL1        0.0272
     14 H           6.2394   -0.6928   -8.4703 H       1  UNL1        0.0272
     15 C           2.3677    0.3234   -4.3460 C.3     1  UNL1       -0.0440
     16 H           1.6320   -0.4738   -4.4418 H       1  UNL1        0.0274
     17 H           3.3543   -0.1329   -4.2355 H       1  UNL1        0.0274
     18 H           2.1654    0.8674   -3.4205 H       1  UNL1        0.0274
     19 C           2.3393    1.2486   -5.5312 C.2     1  UNL1       -0.0796
     20 C           3.3350    2.3724   -5.4738 C.3     1  UNL1       -0.0440
     21 H           3.2523    3.0540   -6.3157 H       1  UNL1        0.0274
     22 H           3.2096    2.9462   -4.5526 H       1  UNL1        0.0274
     23 H           4.3516    1.9730   -5.4676 H       1  UNL1        0.0274
     24 C           1.4765    1.0441   -6.5442 C.2     1  UNL1       -0.0850
     25 H           0.8209    0.1794   -6.4725 H       1  UNL1        0.0572
     26 C           1.3578    1.8290   -7.8149 C.3     1  UNL1       -0.0308
     27 H           0.3045    1.8901   -8.1012 H       1  UNL1        0.0310
     28 H           1.7002    2.8565   -7.6831 H       1  UNL1        0.0310
@<TRIPOS>BOND
     1     7     5    1
     2     3     1    1
     3     5     6    1
     4     5     4    1
     5     5     8    1
     6     2     1    1
     7     1     4    1
     8     1    26    1
     9     4     9    2
    10    14    11    1
    11     9    10    1
    12     9    11    1
    13    12    11    1
    14    27    26    1
    15    11    13    1
    16    26    28    1
    17    26    24    1
    18    24    25    1
    19    24    19    2
    20    21    20    1
    21    19    20    1
    22    19    15    1
    23    20    23    1
    24    20    22    1
    25    16    15    1
    26    15    17    1
    27    15    18    1
