@<TRIPOS>MOLECULE
/home/jramos/PycharmProjects/GeCos/examples/02-IsoP_trueno_openbabel_mp2/02-IsoP_g16_conformers/02-IsoP_042_gaussian.xyz
 28 27 0 0 0
SMALL
GASTEIGER

@<TRIPOS>ATOM
      1 C           2.6357    1.2372   -9.4046 C.3     1  UNL1       -0.0286
      2 H           2.4424    0.2517   -9.8433 H       1  UNL1        0.0313
      3 H           2.7368    1.9462  -10.2295 H       1  UNL1        0.0313
      4 C           3.9181    1.1970   -8.6143 C.2     1  UNL1       -0.0765
      5 C           3.9757    0.1482   -7.5364 C.3     1  UNL1       -0.0438
      6 H           4.9757    0.0152   -7.1317 H       1  UNL1        0.0274
      7 H           3.3118    0.3977   -6.7060 H       1  UNL1        0.0274
      8 H           3.6439   -0.8143   -7.9307 H       1  UNL1        0.0274
      9 C           4.8987    2.0823   -8.8740 C.2     1  UNL1       -0.0881
     10 H           4.7213    2.7907   -9.6784 H       1  UNL1        0.0569
     11 C           6.2213    2.2246   -8.1845 C.3     1  UNL1       -0.0466
     12 H           6.3557    1.5076   -7.3786 H       1  UNL1        0.0272
     13 H           7.0433    2.0956   -8.8910 H       1  UNL1        0.0272
     14 H           6.3236    3.2243   -7.7582 H       1  UNL1        0.0272
     15 C           1.5075    5.4449   -7.5990 C.3     1  UNL1       -0.0440
     16 H           2.0879    5.2404   -6.7007 H       1  UNL1        0.0274
     17 H           2.0742    6.1406   -8.2220 H       1  UNL1        0.0274
     18 H           0.5897    5.9593   -7.3048 H       1  UNL1        0.0274
     19 C           1.1956    4.1819   -8.3534 C.2     1  UNL1       -0.0796
     20 C           0.3955    4.3833   -9.6103 C.3     1  UNL1       -0.0440
     21 H           0.2047    3.4570  -10.1460 H       1  UNL1        0.0274
     22 H          -0.5652    4.8504   -9.3823 H       1  UNL1        0.0274
     23 H           0.9223    5.0598  -10.2869 H       1  UNL1        0.0274
     24 C           1.6211    2.9867   -7.9030 C.2     1  UNL1       -0.0850
     25 H           2.2131    2.9809   -6.9923 H       1  UNL1        0.0572
     26 C           1.4182    1.6509   -8.5546 C.3     1  UNL1       -0.0308
     27 H           1.2404    0.8964   -7.7841 H       1  UNL1        0.0310
     28 H           0.5302    1.6517   -9.1881 H       1  UNL1        0.0310
@<TRIPOS>BOND
     1    23    20    1
     2     3     1    1
     3    21    20    1
     4     2     1    1
     5    10     9    1
     6    20    22    1
     7    20    19    1
     8     1     4    1
     9     1    26    1
    10    28    26    1
    11    13    11    1
    12     9     4    2
    13     9    11    1
    14     4     5    1
    15    26    24    1
    16    26    27    1
    17    19    24    2
    18    19    15    1
    19    17    15    1
    20    11    14    1
    21    11    12    1
    22     8     5    1
    23    24    25    1
    24    15    18    1
    25    15    16    1
    26     5     6    1
    27     5     7    1
