@<TRIPOS>MOLECULE
/home/jramos/PycharmProjects/GeCos/examples/02-IsoP_trueno_openbabel_mp2/02-IsoP_g16_conformers/02-IsoP_024_gaussian.xyz
 28 27 0 0 0
SMALL
GASTEIGER

@<TRIPOS>ATOM
      1 C           2.1250    0.8449   -8.5104 C.3     1  UNL11      -0.0286
      2 H           1.8728   -0.2219   -8.4944 H       1  UNL11       0.0313
      3 H           1.6078    1.2476   -9.3896 H       1  UNL11       0.0313
      4 C           3.6142    0.9701   -8.7385 C.2     1  UNL11      -0.0765
      5 C           4.0560    0.3910  -10.0557 C.3     1  UNL11      -0.0438
      6 H           5.1323    0.4223  -10.2000 H       1  UNL11       0.0274
      7 H           3.7362   -0.6500  -10.1379 H       1  UNL11       0.0274
      8 H           3.5895    0.9310  -10.8828 H       1  UNL11       0.0274
      9 C           4.4399    1.5246   -7.8323 C.2     1  UNL11      -0.0881
     10 H           3.9996    1.9215   -6.9265 H       1  UNL11       0.0569
     11 C           5.9267    1.6926   -7.9242 C.3     1  UNL11      -0.0466
     12 H           6.3470    1.2850   -8.8398 H       1  UNL11       0.0272
     13 H           6.1953    2.7496   -7.8757 H       1  UNL11       0.0272
     14 H           6.4203    1.2017   -7.0834 H       1  UNL11       0.0272
     15 C           2.0012    5.3491   -6.6078 C.3     1  UNL11      -0.0440
     16 H           1.6456    5.5865   -7.6092 H       1  UNL11       0.0274
     17 H           1.3605    5.8611   -5.8861 H       1  UNL11       0.0274
     18 H           3.0042    5.7669   -6.4930 H       1  UNL11       0.0274
     19 C           2.0095    3.8654   -6.3613 C.2     1  UNL11      -0.0796
     20 C           2.4955    3.4626   -4.9968 C.3     1  UNL11      -0.0440
     21 H           2.4790    2.3877   -4.8374 H       1  UNL11       0.0274
     22 H           3.5174    3.8158   -4.8383 H       1  UNL11       0.0274
     23 H           1.8785    3.9249   -4.2231 H       1  UNL11       0.0274
     24 C           1.6125    3.0079   -7.3197 C.2     1  UNL11      -0.0850
     25 H           1.2808    3.4364   -8.2633 H       1  UNL11       0.0572
     26 C           1.5442    1.5099   -7.2599 C.3     1  UNL11      -0.0308
     27 H           2.0421    1.1185   -6.3726 H       1  UNL11       0.0310
     28 H           0.4957    1.2032   -7.1818 H       1  UNL11       0.0310
@<TRIPOS>BOND
     1     3     1    1
     2     8     5    1
     3     7     5    1
     4     2     1    1
     5     5     6    1
     6     5     4    1
     7     1    26    1
     8     1     4    1
     9    28    26    1
    10    25    24    1
    11    26    24    1
    12    26    27    1
    13     4     9    2
    14    24    19    2
    15    16    15    1
    16     9    10    1
    17     9    11    1
    18    19    15    1
    19    19    20    1
    20    12    11    1
    21    15    17    1
    22    15    18    1
    23    11    13    1
    24    11    14    1
    25    21    20    1
    26    20    23    1
    27    20    22    1
