@<TRIPOS>MOLECULE
/home/jramos/PycharmProjects/GeCos/examples/02-IsoP_trueno_openbabel_mp2/02-IsoP_g16_conformers/02-IsoP_010_gaussian.xyz
 28 27 0 0 0
SMALL
GASTEIGER

@<TRIPOS>ATOM
      1 C           2.1466    1.1580   -8.7173 C.3     1  UNL1       -0.0286
      2 H           1.8355    0.1082   -8.7534 H       1  UNL1        0.0313
      3 H           1.9172    1.5886   -9.6953 H       1  UNL1        0.0313
      4 C           3.6276    1.2471   -8.4551 C.2     1  UNL1       -0.0765
      5 C           4.1017    0.5664   -7.1981 C.3     1  UNL1       -0.0438
      6 H           5.1783    0.4158   -7.1834 H       1  UNL1        0.0274
      7 H           3.8339    1.1410   -6.3093 H       1  UNL1        0.0274
      8 H           3.6272   -0.4121   -7.1017 H       1  UNL1        0.0274
      9 C           4.4246    1.9258   -9.3019 C.2     1  UNL1       -0.0881
     10 H           3.9535    2.3694  -10.1749 H       1  UNL1        0.0569
     11 C           5.9018    2.1525   -9.1941 C.3     1  UNL1       -0.0466
     12 H           6.3293    1.7133   -8.2964 H       1  UNL1        0.0272
     13 H           6.4235    1.7340  -10.0567 H       1  UNL1        0.0272
     14 H           6.1239    3.2210   -9.1768 H       1  UNL1        0.0272
     15 C          -2.5179    1.0684   -7.9976 C.3     1  UNL1       -0.0440
     16 H          -2.6570    1.8741   -8.7167 H       1  UNL1        0.0274
     17 H          -2.8270    0.1321   -8.4678 H       1  UNL1        0.0274
     18 H          -3.1946    1.2390   -7.1572 H       1  UNL1        0.0274
     19 C          -1.0916    0.9872   -7.5277 C.2     1  UNL1       -0.0796
     20 C          -0.8218   -0.1002   -6.5249 C.3     1  UNL1       -0.0440
     21 H           0.2242   -0.1612   -6.2352 H       1  UNL1        0.0274
     22 H          -1.4180    0.0541   -5.6227 H       1  UNL1        0.0274
     23 H          -1.1137   -1.0696   -6.9342 H       1  UNL1        0.0274
     24 C          -0.1619    1.8437   -7.9911 C.2     1  UNL1       -0.0850
     25 H          -0.4795    2.5730   -8.7321 H       1  UNL1        0.0572
     26 C           1.2980    1.8698   -7.6478 C.3     1  UNL1       -0.0308
     27 H           1.6369    2.9069   -7.5743 H       1  UNL1        0.0310
     28 H           1.4769    1.4156   -6.6732 H       1  UNL1        0.0310
@<TRIPOS>BOND
     1    10     9    1
     2    13    11    1
     3     3     1    1
     4     9    11    1
     5     9     4    2
     6    11    14    1
     7    11    12    1
     8     2     1    1
     9    25    24    1
    10     1     4    1
    11     1    26    1
    12    16    15    1
    13    17    15    1
    14     4     5    1
    15    15    19    1
    16    15    18    1
    17    24    26    1
    18    24    19    2
    19    26    27    1
    20    26    28    1
    21    19    20    1
    22     5     6    1
    23     5     8    1
    24     5     7    1
    25    23    20    1
    26    20    21    1
    27    20    22    1
