@<TRIPOS>MOLECULE
/home/jramos/PycharmProjects/GeCos/examples/02-IsoP_trueno_openbabel_mp2/02-IsoP_g16_conformers/02-IsoP_041_gaussian.xyz
 28 27 0 0 0
SMALL
GASTEIGER

@<TRIPOS>ATOM
      1 C           2.1705    0.9146   -8.6826 C.3     1  UNL11      -0.0286
      2 H           2.1394   -0.1756   -8.7554 H       1  UNL11       0.0313
      3 H           1.6484    1.3048   -9.5609 H       1  UNL11       0.0313
      4 C           3.6076    1.3883   -8.6862 C.2     1  UNL11      -0.0765
      5 C           3.8767    2.6549   -9.4497 C.3     1  UNL11      -0.0438
      6 H           4.9084    2.9894   -9.3708 H       1  UNL11       0.0274
      7 H           3.6500    2.5088  -10.5083 H       1  UNL11       0.0274
      8 H           3.2297    3.4538   -9.0868 H       1  UNL11       0.0274
      9 C           4.5331    0.6795   -8.0120 C.2     1  UNL11      -0.0881
     10 H           4.1935   -0.2300   -7.5207 H       1  UNL11       0.0569
     11 C           5.9902    0.9829   -7.8397 C.3     1  UNL11      -0.0466
     12 H           6.2936    1.8891   -8.3573 H       1  UNL11       0.0272
     13 H           6.2359    1.1042   -6.7828 H       1  UNL11       0.0272
     14 H           6.6035    0.1621   -8.2160 H       1  UNL11       0.0272
     15 C           1.8158    5.1008   -6.3999 C.3     1  UNL11      -0.0440
     16 H           1.0474    5.4051   -7.1092 H       1  UNL11       0.0274
     17 H           1.5164    5.4385   -5.4052 H       1  UNL11       0.0274
     18 H           2.7398    5.6282   -6.6479 H       1  UNL11       0.0274
     19 C           2.0286    3.6117   -6.4180 C.2     1  UNL11      -0.0796
     20 C           3.0730    3.1180   -5.4560 C.3     1  UNL11      -0.0440
     21 H           3.2355    2.0462   -5.5193 H       1  UNL11       0.0274
     22 H           4.0270    3.6099   -5.6586 H       1  UNL11       0.0274
     23 H           2.7970    3.3715   -4.4297 H       1  UNL11       0.0274
     24 C           1.3186    2.8275   -7.2518 C.2     1  UNL11      -0.0850
     25 H           0.6068    3.3194   -7.9112 H       1  UNL11       0.0572
     26 C           1.4104    1.3399   -7.4106 C.3     1  UNL11      -0.0308
     27 H           1.9000    0.8834   -6.5498 H       1  UNL11       0.0310
     28 H           0.3989    0.9240   -7.4526 H       1  UNL11       0.0310
@<TRIPOS>BOND
     1     7     5    1
     2     3     1    1
     3     2     1    1
     4     5     6    1
     5     5     4    1
     6     5     8    1
     7     1     4    1
     8     1    26    1
     9     4     9    2
    10    14    11    1
    11     9    10    1
    12     9    11    1
    13    12    11    1
    14    28    26    1
    15    25    24    1
    16    11    13    1
    17    26    24    1
    18    26    27    1
    19    24    19    2
    20    16    15    1
    21    19    15    1
    22    19    20    1
    23    18    15    1
    24    15    17    1
    25    21    20    1
    26    20    22    1
    27    20    23    1
