@<TRIPOS>MOLECULE
/home/jramos/PycharmProjects/GeCos/examples/02-IsoP_trueno_openbabel_mp2/02-IsoP_g16_conformers/02-IsoP_000_gaussian.xyz
 28 27 0 0 0
SMALL
GASTEIGER

@<TRIPOS>ATOM
      1 C           3.7070    2.4033   -7.8985 C.3     1  UNL11      -0.0286
      2 H           3.9298    3.2772   -8.5160 H       1  UNL11       0.0313
      3 H           4.1328    2.5992   -6.9084 H       1  UNL11       0.0313
      4 C           4.3446    1.1777   -8.4994 C.2     1  UNL11      -0.0765
      5 C           4.2307   -0.0778   -7.6756 C.3     1  UNL11      -0.0438
      6 H           4.9212   -0.8538   -7.9963 H       1  UNL11       0.0274
      7 H           4.4416    0.1430   -6.6273 H       1  UNL11       0.0274
      8 H           3.2215   -0.4920   -7.7186 H       1  UNL11       0.0274
      9 C           4.9368    1.2464   -9.7067 C.2     1  UNL11      -0.0881
     10 H           4.9510    2.2169  -10.1953 H       1  UNL11       0.0569
     11 C           5.5894    0.1389  -10.4765 C.3     1  UNL11      -0.0466
     12 H           5.5329   -0.8182   -9.9643 H       1  UNL11       0.0272
     13 H           5.1139    0.0199  -11.4518 H       1  UNL11       0.0272
     14 H           6.6417    0.3615  -10.6618 H       1  UNL11       0.0272
     15 C           0.6564    5.1789   -5.6018 C.3     1  UNL11      -0.0440
     16 H           0.5665    5.8236   -6.4748 H       1  UNL11       0.0274
     17 H          -0.3337    5.0697   -5.1535 H       1  UNL11       0.0274
     18 H           1.2833    5.6857   -4.8647 H       1  UNL11       0.0274
     19 C           1.2312    3.8369   -5.9627 C.2     1  UNL11      -0.0796
     20 C           1.3795    2.8862   -4.8073 C.3     1  UNL11      -0.0440
     21 H           1.8342    1.9404   -5.0908 H       1  UNL11       0.0274
     22 H           1.9984    3.3358   -4.0279 H       1  UNL11       0.0274
     23 H           0.4070    2.6764   -4.3564 H       1  UNL11       0.0274
     24 C           1.5689    3.5493   -7.2338 C.2     1  UNL11      -0.0850
     25 H           1.4328    4.3318   -7.9762 H       1  UNL11       0.0572
     26 C           2.1802    2.2783   -7.7442 C.3     1  UNL11      -0.0308
     27 H           1.9437    1.4413   -7.0870 H       1  UNL11       0.0310
     28 H           1.7546    2.0356   -8.7219 H       1  UNL11       0.0310
@<TRIPOS>BOND
     1     3     1    1
     2    18    15    1
     3    14    11    1
     4     2     1    1
     5    10     9    1
     6    22    20    1
     7     1     4    1
     8     1    26    1
     9     9     4    2
    10     9    11    1
    11     7     5    1
    12     4     5    1
    13    16    15    1
    14    15    19    1
    15    15    17    1
    16    11    12    1
    17    11    13    1
    18    19    20    1
    19    19    24    2
    20    20    21    1
    21    20    23    1
    22     6     5    1
    23     5     8    1
    24    25    24    1
    25    24    26    1
    26    26    27    1
    27    26    28    1
