@<TRIPOS>MOLECULE
/home/jramos/PycharmProjects/GeCos/examples/02-IsoP_trueno_openbabel_mp2/02-IsoP_g16_conformers/02-IsoP_041_gaussian.xyz
 28 27 0 0 0
SMALL
GASTEIGER

@<TRIPOS>ATOM
      1 C           2.1895    1.3027   -9.0785 C.3     1  UNL1       -0.0286
      2 H           1.8277    0.3164   -9.3803 H       1  UNL1        0.0313
      3 H           1.9751    1.9846   -9.9063 H       1  UNL1        0.0313
      4 C           3.6812    1.2483   -8.8304 C.2     1  UNL1       -0.0765
      5 C           4.4631    2.4510   -9.2795 C.3     1  UNL1       -0.0438
      6 H           5.5183    2.3936   -9.0234 H       1  UNL1        0.0274
      7 H           4.3852    2.5644  -10.3632 H       1  UNL1        0.0274
      8 H           4.0505    3.3538   -8.8286 H       1  UNL1        0.0274
      9 C           4.2058    0.1660   -8.2247 C.2     1  UNL1       -0.0881
     10 H           3.5175   -0.6382   -7.9731 H       1  UNL1        0.0569
     11 C           5.6324   -0.0813   -7.8391 C.3     1  UNL1       -0.0466
     12 H           6.2904    0.7366   -8.1208 H       1  UNL1        0.0272
     13 H           5.7204   -0.2238   -6.7602 H       1  UNL1        0.0272
     14 H           6.0088   -0.9906   -8.3112 H       1  UNL1        0.0272
     15 C           2.7958    4.9297   -6.0227 C.3     1  UNL1       -0.0440
     16 H           2.2956    5.5895   -6.7303 H       1  UNL1        0.0274
     17 H           2.4542    5.1845   -5.0169 H       1  UNL1        0.0274
     18 H           3.8672    5.1405   -6.0554 H       1  UNL1        0.0274
     19 C           2.5260    3.4817   -6.3287 C.2     1  UNL1       -0.0796
     20 C           3.1808    2.5113   -5.3857 C.3     1  UNL1       -0.0440
     21 H           3.0039    1.4739   -5.6538 H       1  UNL1        0.0274
     22 H           4.2613    2.6716   -5.3785 H       1  UNL1        0.0274
     23 H           2.8290    2.6750   -4.3643 H       1  UNL1        0.0274
     24 C           1.7569    3.1343   -7.3785 C.2     1  UNL1       -0.0850
     25 H           1.3604    3.9402   -7.9924 H       1  UNL1        0.0572
     26 C           1.3986    1.7520   -7.8338 C.3     1  UNL1       -0.0308
     27 H           1.5646    1.0227   -7.0404 H       1  UNL1        0.0310
     28 H           0.3301    1.7212   -8.0690 H       1  UNL1        0.0310
@<TRIPOS>BOND
     1     7     5    1
     2     3     1    1
     3     2     1    1
     4     5     6    1
     5     5     4    1
     6     5     8    1
     7     1     4    1
     8     1    26    1
     9     4     9    2
    10    14    11    1
    11     9    10    1
    12     9    11    1
    13    12    11    1
    14    28    26    1
    15    25    24    1
    16    11    13    1
    17    26    24    1
    18    26    27    1
    19    24    19    2
    20    16    15    1
    21    19    15    1
    22    19    20    1
    23    18    15    1
    24    15    17    1
    25    21    20    1
    26    20    22    1
    27    20    23    1
