@<TRIPOS>MOLECULE
/home/jramos/PycharmProjects/GeCos/examples/02-IsoP_trueno_openbabel_mp2/02-IsoP_g16_conformers/02-IsoP_012_gaussian.xyz
 28 27 0 0 0
SMALL
GASTEIGER

@<TRIPOS>ATOM
      1 C           2.1810    1.0897   -8.9040 C.3     1  UNL1       -0.0286
      2 H           1.9016    0.0413   -9.0584 H       1  UNL1        0.0313
      3 H           2.0294    1.6098   -9.8526 H       1  UNL1        0.0313
      4 C           3.6327    1.1742   -8.5090 C.2     1  UNL1       -0.0765
      5 C           4.0163    0.3695   -7.2963 C.3     1  UNL1       -0.0438
      6 H           5.0926    0.2919   -7.1659 H       1  UNL1        0.0274
      7 H           3.6019    0.8058   -6.3849 H       1  UNL1        0.0274
      8 H           3.6152   -0.6429   -7.3752 H       1  UNL1        0.0274
      9 C           4.4777    1.9560   -9.2073 C.2     1  UNL1       -0.0881
     10 H           4.0647    2.4879  -10.0599 H       1  UNL1        0.0569
     11 C           5.9349    2.1969   -8.9554 C.3     1  UNL1       -0.0466
     12 H           6.3068    1.6596   -8.0867 H       1  UNL1        0.0272
     13 H           6.5328    1.8976   -9.8182 H       1  UNL1        0.0272
     14 H           6.1231    3.2597   -8.7924 H       1  UNL1        0.0272
     15 C           1.4794    5.6120   -7.7669 C.3     1  UNL1       -0.0440
     16 H           2.2913    5.5796   -7.0420 H       1  UNL1        0.0274
     17 H           1.8319    6.1461   -8.6523 H       1  UNL1        0.0274
     18 H           0.6649    6.2044   -7.3436 H       1  UNL1        0.0274
     19 C           1.0063    4.2308   -8.1274 C.2     1  UNL1       -0.0796
     20 C          -0.1162    4.1931   -9.1269 C.3     1  UNL1       -0.0440
     21 H          -0.4217    3.1826   -9.3855 H       1  UNL1        0.0274
     22 H          -0.9890    4.7263   -8.7432 H       1  UNL1        0.0274
     23 H           0.1830    4.6993  -10.0473 H       1  UNL1        0.0274
     24 C           1.5735    3.1417   -7.5754 C.2     1  UNL1       -0.0850
     25 H           2.3946    3.3056   -6.8835 H       1  UNL1        0.0572
     26 C           1.2356    1.7071   -7.8546 C.3     1  UNL1       -0.0308
     27 H           1.2997    1.1337   -6.9265 H       1  UNL1        0.0310
     28 H           0.2072    1.6047   -8.2035 H       1  UNL1        0.0310
@<TRIPOS>BOND
     1    10     9    1
     2    23    20    1
     3     3     1    1
     4    13    11    1
     5    21    20    1
     6     9    11    1
     7     9     4    2
     8    20    22    1
     9    20    19    1
    10     2     1    1
    11    11    14    1
    12    11    12    1
    13     1     4    1
    14     1    26    1
    15    17    15    1
    16     4     5    1
    17    28    26    1
    18    19    15    1
    19    19    24    2
    20    26    24    1
    21    26    27    1
    22    15    18    1
    23    15    16    1
    24    24    25    1
    25     8     5    1
    26     5     6    1
    27     5     7    1
