@<TRIPOS>MOLECULE
/home/jramos/PycharmProjects/GeCos/examples/02-IsoP_trueno_openbabel_mp2/02-IsoP_g16_conformers/02-IsoP_035_gaussian.xyz
 28 27 0 0 0
SMALL
GASTEIGER

@<TRIPOS>ATOM
      1 C           1.9721    1.9863   -8.6571 C.3     1  UNL1       -0.0286
      2 H           1.4252    1.0931   -8.9679 H       1  UNL1        0.0313
      3 H           1.8094    2.7518   -9.4241 H       1  UNL1        0.0313
      4 C           3.4421    1.6695   -8.5612 C.2     1  UNL1       -0.0765
      5 C           4.3369    2.8490   -8.2900 C.3     1  UNL1       -0.0438
      6 H           5.3900    2.6194   -8.4304 H       1  UNL1        0.0274
      7 H           4.0829    3.6744   -8.9579 H       1  UNL1        0.0274
      8 H           4.2100    3.2152   -7.2690 H       1  UNL1        0.0274
      9 C           3.8680    0.3981   -8.6843 C.2     1  UNL1       -0.0881
     10 H           3.1110   -0.3579   -8.8731 H       1  UNL1        0.0569
     11 C           5.2707   -0.1197   -8.5876 C.3     1  UNL1       -0.0466
     12 H           5.9962    0.6641   -8.3856 H       1  UNL1        0.0272
     13 H           5.3502   -0.8582   -7.7877 H       1  UNL1        0.0272
     14 H           5.5641   -0.6206   -9.5120 H       1  UNL1        0.0272
     15 C           1.0742   -0.3916   -4.6855 C.3     1  UNL1       -0.0440
     16 H           2.0840   -0.2097   -4.3208 H       1  UNL1        0.0274
     17 H           0.3833   -0.2955   -3.8448 H       1  UNL1        0.0274
     18 H           1.0149   -1.4276   -5.0269 H       1  UNL1        0.0274
     19 C           0.7077    0.5589   -5.7917 C.2     1  UNL1       -0.0796
     20 C          -0.6755    0.3689   -6.3495 C.3     1  UNL1       -0.0440
     21 H          -0.9042    1.0538   -7.1619 H       1  UNL1        0.0274
     22 H          -0.7921   -0.6496   -6.7263 H       1  UNL1        0.0274
     23 H          -1.4260    0.5036   -5.5674 H       1  UNL1        0.0274
     24 C           1.5814    1.4900   -6.2186 C.2     1  UNL1       -0.0850
     25 H           2.5600    1.5064   -5.7476 H       1  UNL1        0.0572
     26 C           1.3759    2.4821   -7.3248 C.3     1  UNL1       -0.0308
     27 H           0.3164    2.6962   -7.4711 H       1  UNL1        0.0310
     28 H           1.8421    3.4315   -7.0498 H       1  UNL1        0.0310
@<TRIPOS>BOND
     1    14    11    1
     2     3     1    1
     3     2     1    1
     4     7     5    1
     5    10     9    1
     6     9    11    1
     7     9     4    2
     8     1     4    1
     9     1    26    1
    10    11    12    1
    11    11    13    1
    12     4     5    1
    13     6     5    1
    14     5     8    1
    15    27    26    1
    16    26    28    1
    17    26    24    1
    18    21    20    1
    19    22    20    1
    20    20    19    1
    21    20    23    1
    22    24    19    2
    23    24    25    1
    24    19    15    1
    25    18    15    1
    26    15    16    1
    27    15    17    1
