@<TRIPOS>MOLECULE
/home/jramos/PycharmProjects/GeCos/examples/02-IsoP_trueno_openbabel_mp2/02-IsoP_g16_conformers/02-IsoP_027_gaussian.xyz
 28 27 0 0 0
SMALL
GASTEIGER

@<TRIPOS>ATOM
      1 C           2.2266    1.2835   -8.9637 C.3     1  UNL1       -0.0286
      2 H           1.9115    0.2936   -9.3164 H       1  UNL1        0.0313
      3 H           2.1224    1.9508   -9.8261 H       1  UNL1        0.0313
      4 C           3.6936    1.2125   -8.6009 C.2     1  UNL1       -0.0765
      5 C           4.5882    1.0723   -9.8030 C.3     1  UNL1       -0.0438
      6 H           5.6260    0.8760   -9.5481 H       1  UNL1        0.0274
      7 H           4.2385    0.2534  -10.4353 H       1  UNL1        0.0274
      8 H           4.5529    1.9790  -10.4108 H       1  UNL1        0.0274
      9 C           4.1279    1.2393   -7.3279 C.2     1  UNL1       -0.0881
     10 H           3.3865    1.3312   -6.5423 H       1  UNL1        0.0569
     11 C           5.5418    1.1544   -6.8360 C.3     1  UNL1       -0.0466
     12 H           6.2689    1.0999   -7.6418 H       1  UNL1        0.0272
     13 H           5.7868    2.0263   -6.2269 H       1  UNL1        0.0272
     14 H           5.6777    0.2764   -6.2017 H       1  UNL1        0.0272
     15 C           1.2730    5.6695   -7.5549 C.3     1  UNL1       -0.0440
     16 H           2.0053    5.6404   -6.7495 H       1  UNL1        0.0274
     17 H           1.6827    6.2721   -8.3687 H       1  UNL1        0.0274
     18 H           0.3844    6.1910   -7.1916 H       1  UNL1        0.0274
     19 C           0.9244    4.2872   -8.0336 C.2     1  UNL1       -0.0796
     20 C          -0.0834    4.2454   -9.1488 C.3     1  UNL1       -0.0440
     21 H          -0.3117    3.2349   -9.4781 H       1  UNL1        0.0274
     22 H          -1.0158    4.7230   -8.8395 H       1  UNL1        0.0274
     23 H           0.2857    4.8039  -10.0118 H       1  UNL1        0.0274
     24 C           1.4978    3.2007   -7.4824 C.2     1  UNL1       -0.0850
     25 H           2.2271    3.3700   -6.6974 H       1  UNL1        0.0572
     26 C           1.2589    1.7708   -7.8787 C.3     1  UNL1       -0.0308
     27 H           1.3326    1.1263   -6.9999 H       1  UNL1        0.0310
     28 H           0.2416    1.6454   -8.2527 H       1  UNL1        0.0310
@<TRIPOS>BOND
     1     7     5    1
     2     8     5    1
     3    23    20    1
     4     3     1    1
     5     5     6    1
     6     5     4    1
     7    21    20    1
     8     2     1    1
     9    20    22    1
    10    20    19    1
    11     1     4    1
    12     1    26    1
    13     4     9    2
    14    17    15    1
    15    28    26    1
    16    19    15    1
    17    19    24    2
    18    26    24    1
    19    26    27    1
    20    12    11    1
    21    15    18    1
    22    15    16    1
    23    24    25    1
    24     9    11    1
    25     9    10    1
    26    11    13    1
    27    11    14    1
