@<TRIPOS>MOLECULE
/home/jramos/PycharmProjects/GeCos/examples/02-IsoP_trueno_openbabel_mp2/02-IsoP_g16_conformers/02-IsoP_010_gaussian.xyz
 28 27 0 0 0
SMALL
GASTEIGER

@<TRIPOS>ATOM
      1 C           2.9895    2.0323   -8.3391 C.3     1  UNL11      -0.0286
      2 H           2.0346    1.5143   -8.1970 H       1  UNL11       0.0313
      3 H           2.8531    2.7204   -9.1772 H       1  UNL11       0.0313
      4 C           4.0714    1.0364   -8.6672 C.2     1  UNL11      -0.0765
      5 C           4.2697   -0.0578   -7.6515 C.3     1  UNL11      -0.0438
      6 H           4.8496   -0.8910   -8.0406 H       1  UNL11       0.0274
      7 H           4.7786    0.3143   -6.7602 H       1  UNL11       0.0274
      8 H           3.3023   -0.4473   -7.3286 H       1  UNL11       0.0274
      9 C           4.8020    1.1768   -9.7893 C.2     1  UNL11      -0.0881
     10 H           4.5537    2.0117  -10.4391 H       1  UNL11       0.0569
     11 C           5.9325    0.3165  -10.2659 C.3     1  UNL11      -0.0466
     12 H           6.1639   -0.4918   -9.5770 H       1  UNL11       0.0272
     13 H           5.7035   -0.1232  -11.2383 H       1  UNL11       0.0272
     14 H           6.8385    0.9119  -10.3923 H       1  UNL11       0.0272
     15 C           0.1873    4.9364   -5.8900 C.3     1  UNL11      -0.0440
     16 H           0.4537    5.7652   -6.5440 H       1  UNL11       0.0274
     17 H          -0.8174    4.5996   -6.1554 H       1  UNL11       0.0274
     18 H           0.1350    5.3118   -4.8655 H       1  UNL11       0.0274
     19 C           1.1765    3.8086   -5.9964 C.2     1  UNL11      -0.0796
     20 C           0.8789    2.6271   -5.1153 C.3     1  UNL11      -0.0440
     21 H           1.5866    1.8120   -5.2439 H       1  UNL11       0.0274
     22 H           0.8848    2.9223   -4.0636 H       1  UNL11       0.0274
     23 H          -0.1200    2.2411   -5.3293 H       1  UNL11       0.0274
     24 C           2.2343    3.8935   -6.8250 C.2     1  UNL11      -0.0850
     25 H           2.3265    4.7941   -7.4269 H       1  UNL11       0.0572
     26 C           3.2826    2.8483   -7.0668 C.3     1  UNL11      -0.0308
     27 H           4.2574    3.3299   -7.1843 H       1  UNL11       0.0310
     28 H           3.3691    2.1785   -6.2113 H       1  UNL11       0.0310
@<TRIPOS>BOND
     1    10     9    1
     2    13    11    1
     3     3     1    1
     4     9    11    1
     5     9     4    2
     6    11    14    1
     7    11    12    1
     8     2     1    1
     9    25    24    1
    10     1     4    1
    11     1    26    1
    12    16    15    1
    13    17    15    1
    14     4     5    1
    15    15    19    1
    16    15    18    1
    17    24    26    1
    18    24    19    2
    19    26    27    1
    20    26    28    1
    21    19    20    1
    22     5     6    1
    23     5     8    1
    24     5     7    1
    25    23    20    1
    26    20    21    1
    27    20    22    1
