@<TRIPOS>MOLECULE
/home/jramos/PycharmProjects/GeCos/examples/02-IsoP_trueno_openbabel_mp2/02-IsoP_g16_conformers/02-IsoP_008_gaussian.xyz
 28 27 0 0 0
SMALL
GASTEIGER

@<TRIPOS>ATOM
      1 C           2.2375    1.2618   -9.0900 C.3     1  UNL1       -0.0286
      2 H           1.9231    0.2712   -9.4302 H       1  UNL1        0.0313
      3 H           2.1356    1.9400   -9.9412 H       1  UNL1        0.0313
      4 C           3.6827    1.2126   -8.6439 C.2     1  UNL1       -0.0765
      5 C           4.1779   -0.1344   -8.1933 C.3     1  UNL1       -0.0438
      6 H           5.1733   -0.0997   -7.7572 H       1  UNL1        0.0274
      7 H           3.4947   -0.5591   -7.4574 H       1  UNL1        0.0274
      8 H           4.2046   -0.8246   -9.0398 H       1  UNL1        0.0274
      9 C           4.4190    2.3396   -8.6677 C.2     1  UNL1       -0.0881
     10 H           3.9312    3.2373   -9.0411 H       1  UNL1        0.0569
     11 C           5.8443    2.5250   -8.2442 C.3     1  UNL1       -0.0466
     12 H           6.2939    1.6078   -7.8727 H       1  UNL1        0.0272
     13 H           6.4517    2.8792   -9.0792 H       1  UNL1        0.0272
     14 H           5.9185    3.2772   -7.4567 H       1  UNL1        0.0272
     15 C           0.8148   -0.8835   -5.0947 C.3     1  UNL1       -0.0440
     16 H           1.6617   -0.4779   -4.5430 H       1  UNL1        0.0274
     17 H          -0.0674   -0.8349   -4.4522 H       1  UNL1        0.0274
     18 H           1.0066   -1.9413   -5.2888 H       1  UNL1        0.0274
     19 C           0.5833   -0.1354   -6.3787 C.2     1  UNL1       -0.0796
     20 C          -0.5730   -0.6358   -7.1988 C.3     1  UNL1       -0.0440
     21 H          -0.7002   -0.0897   -8.1299 H       1  UNL1        0.0274
     22 H          -0.4313   -1.6905   -7.4447 H       1  UNL1        0.0274
     23 H          -1.5036   -0.5665   -6.6311 H       1  UNL1        0.0274
     24 C           1.3745    0.8970   -6.7285 C.2     1  UNL1       -0.0850
     25 H           2.1900    1.1512   -6.0572 H       1  UNL1        0.0572
     26 C           1.2820    1.7288   -7.9742 C.3     1  UNL1       -0.0308
     27 H           0.2614    1.7419   -8.3615 H       1  UNL1        0.0310
     28 H           1.5360    2.7625   -7.7260 H       1  UNL1        0.0310
@<TRIPOS>BOND
     1     3     1    1
     2     2     1    1
     3     1     4    1
     4     1    26    1
     5    13    11    1
     6    10     9    1
     7     8     5    1
     8     9     4    2
     9     9    11    1
    10     4     5    1
    11    27    26    1
    12    11    12    1
    13    11    14    1
    14     5     6    1
    15     5     7    1
    16    21    20    1
    17    26    28    1
    18    26    24    1
    19    22    20    1
    20    20    23    1
    21    20    19    1
    22    24    19    2
    23    24    25    1
    24    19    15    1
    25    18    15    1
    26    15    16    1
    27    15    17    1
