@<TRIPOS>MOLECULE
/home/jramos/Programacion/GITHUB_REPO_DIR/gecos2/examples/03-IsoP_localhost_rdkit_pm3/03-IsoP_g16_conformers/03-IsoP_004_gaussian.xyz
 28 27 0 0 0
SMALL
GASTEIGER

@<TRIPOS>ATOM
      1 C          -0.7892   -0.6462   -0.3373 C.3     1  UNL11      -0.0286
      2 H          -0.2150   -1.1174   -1.1589 H       1  UNL11       0.0313
      3 H          -1.1300   -1.4800    0.3184 H       1  UNL11       0.0313
      4 C          -1.9758    0.0696   -0.8996 C.2     1  UNL11      -0.0765
      5 C          -1.7350    0.8581   -2.1378 C.3     1  UNL11      -0.0438
      6 H          -2.6293    1.3976   -2.4767 H       1  UNL11       0.0274
      7 H          -1.4138    0.2002   -2.9571 H       1  UNL11       0.0274
      8 H          -0.9401    1.6008   -1.9799 H       1  UNL11       0.0274
      9 C          -3.1951    0.0041   -0.3468 C.2     1  UNL11      -0.0881
     10 H          -4.0317    0.5490   -0.8029 H       1  UNL11       0.0569
     11 C          -3.5234   -0.7706    0.8692 C.3     1  UNL11      -0.0466
     12 H          -4.4215   -1.3818    0.7125 H       1  UNL11       0.0272
     13 H          -2.7038   -1.4465    1.1658 H       1  UNL11       0.0272
     14 H          -3.7216   -0.0964    1.7132 H       1  UNL11       0.0272
     15 C           2.9508    1.2452    0.2294 C.3     1  UNL11      -0.0440
     16 H           3.3497    1.9766    0.9450 H       1  UNL11       0.0274
     17 H           3.7349    1.0413   -0.5116 H       1  UNL11       0.0274
     18 H           2.1051    1.7178   -0.2968 H       1  UNL11       0.0274
     19 C           2.5441   -0.0018    0.9277 C.2     1  UNL11      -0.0796
     20 C           3.6577   -0.7773    1.5386 C.3     1  UNL11      -0.0440
     21 H           3.3103   -1.6776    2.0624 H       1  UNL11       0.0274
     22 H           4.3741   -1.0969    0.7695 H       1  UNL11       0.0274
     23 H           4.2050   -0.1612    2.2649 H       1  UNL11       0.0274
     24 C           1.2752   -0.4216    1.0206 C.2     1  UNL11      -0.0850
     25 H           1.0451   -1.3562    1.5494 H       1  UNL11       0.0572
     26 C           0.1044    0.2996    0.4562 C.3     1  UNL11      -0.0308
     27 H          -0.4674    0.7554    1.2895 H       1  UNL11       0.0310
     28 H           0.4345    1.1494   -0.1843 H       1  UNL11       0.0310
@<TRIPOS>BOND
     1     7     5    1
     2     6     5    1
     3     5     8    1
     4     5     4    1
     5    10     9    1
     6     4     9    2
     7     4     1    1
     8     2     1    1
     9    17    15    1
    10    18    15    1
    11    28    26    1
    12     9    11    1
    13     1    26    1
    14     1     3    1
    15    15    16    1
    16    15    19    1
    17    26    27    1
    18    26    24    1
    19    12    11    1
    20    19    24    2
    21    19    20    1
    22    11    13    1
    23    11    14    1
    24    22    20    1
    25    24    25    1
    26    20    23    1
    27    20    21    1
