@<TRIPOS>MOLECULE
/home/jramos/Programacion/GITHUB_REPO_DIR/gecos2/examples/03-IsoP_localhost_rdkit_pm3/03-IsoP_g16_conformers/03-IsoP_008_gaussian.xyz
 28 27 0 0 0
SMALL
GASTEIGER

@<TRIPOS>ATOM
      1 C          -1.1393    1.0476    0.2195 C.3     1  UNL11      -0.0286
      2 H          -1.2654    0.6922    1.2664 H       1  UNL11       0.0313
      3 H          -1.5539    2.0749    0.1926 H       1  UNL11       0.0313
      4 C          -1.9342    0.1959   -0.7193 C.2     1  UNL11      -0.0765
      5 C          -1.9343    0.6448   -2.1384 C.3     1  UNL11      -0.0438
      6 H          -2.5737    1.5289   -2.2630 H       1  UNL11       0.0274
      7 H          -0.9111    0.9263   -2.4425 H       1  UNL11       0.0274
      8 H          -2.2927   -0.1279   -2.8300 H       1  UNL11       0.0274
      9 C          -2.6146   -0.8929   -0.3366 C.2     1  UNL11      -0.0881
     10 H          -3.1837   -1.4666   -1.0798 H       1  UNL11       0.0569
     11 C          -2.6719   -1.4121    1.0466 C.3     1  UNL11      -0.0466
     12 H          -3.7113   -1.4717    1.3952 H       1  UNL11       0.0272
     13 H          -2.1149   -0.7794    1.7573 H       1  UNL11       0.0272
     14 H          -2.2449   -2.4227    1.0954 H       1  UNL11       0.0272
     15 C           2.9046   -1.4787    1.1981 C.3     1  UNL11      -0.0440
     16 H           3.8715   -1.5894    0.6887 H       1  UNL11       0.0274
     17 H           3.0941   -1.5174    2.2795 H       1  UNL11       0.0274
     18 H           2.2906   -2.3510    0.9377 H       1  UNL11       0.0274
     19 C           2.2601   -0.1910    0.8241 C.2     1  UNL11      -0.0796
     20 C           3.0615    1.0272    1.1105 C.3     1  UNL11      -0.0440
     21 H           2.4692    1.9479    0.9792 H       1  UNL11       0.0274
     22 H           3.4406    1.0162    2.1408 H       1  UNL11       0.0274
     23 H           3.9269    1.0878    0.4370 H       1  UNL11       0.0274
     24 C           1.0424   -0.1613    0.2661 C.2     1  UNL11      -0.0850
     25 H           0.4933   -1.0955    0.0844 H       1  UNL11       0.0572
     26 C           0.3395    1.0798   -0.1502 C.3     1  UNL11      -0.0308
     27 H           0.4407    1.1966   -1.2545 H       1  UNL11       0.0310
     28 H           0.8278    1.9724    0.3009 H       1  UNL11       0.0310
@<TRIPOS>BOND
     1     8     5    1
     2     7     5    1
     3     6     5    1
     4     5     4    1
     5    27    26    1
     6    10     9    1
     7     4     9    2
     8     4     1    1
     9     9    11    1
    10    26     1    1
    11    26    24    1
    12    26    28    1
    13    25    24    1
    14     3     1    1
    15     1     2    1
    16    24    19    2
    17    23    20    1
    18    16    15    1
    19    19    20    1
    20    19    15    1
    21    11    14    1
    22    11    12    1
    23    11    13    1
    24    18    15    1
    25    21    20    1
    26    20    22    1
    27    15    17    1
