@<TRIPOS>MOLECULE
/home/jramos/Programacion/GITHUB_REPO_DIR/gecos2/examples/03-IsoP_localhost_rdkit_pm3/03-IsoP_g16_conformers/03-IsoP_007_gaussian.xyz
 28 27 0 0 0
SMALL
GASTEIGER

@<TRIPOS>ATOM
      1 C          -0.6163    0.7062   -0.4690 C.3     1  UNL11      -0.0286
      2 H          -0.7348    1.7452   -0.0977 H       1  UNL11       0.0313
      3 H          -0.0695    0.7936   -1.4294 H       1  UNL11       0.0313
      4 C          -1.9840    0.1445   -0.7118 C.2     1  UNL11      -0.0765
      5 C          -2.5297    0.3786   -2.0742 C.3     1  UNL11      -0.0438
      6 H          -3.5711    0.0282   -2.1649 H       1  UNL11       0.0274
      7 H          -2.5115    1.4475   -2.3245 H       1  UNL11       0.0274
      8 H          -1.9323   -0.1515   -2.8281 H       1  UNL11       0.0274
      9 C          -2.6633   -0.4918    0.2521 C.2     1  UNL11      -0.0881
     10 H          -2.1819   -0.6295    1.2347 H       1  UNL11       0.0569
     11 C          -4.0264   -1.0429    0.1076 C.3     1  UNL11      -0.0466
     12 H          -4.4557   -0.8429   -0.8881 H       1  UNL11       0.0272
     13 H          -4.0210   -2.1307    0.2573 H       1  UNL11       0.0272
     14 H          -4.7003   -0.6066    0.8565 H       1  UNL11       0.0272
     15 C           2.9747   -1.2979    0.4785 C.3     1  UNL11      -0.0440
     16 H           3.3389   -1.9019    1.3201 H       1  UNL11       0.0274
     17 H           2.0877   -1.8030    0.0621 H       1  UNL11       0.0274
     18 H           3.7544   -1.2982   -0.2946 H       1  UNL11       0.0274
     19 C           2.6694    0.0871    0.9219 C.2     1  UNL11      -0.0796
     20 C           3.8441    0.8803    1.3749 C.3     1  UNL11      -0.0440
     21 H           4.3515    0.3777    2.2095 H       1  UNL11       0.0274
     22 H           3.5707    1.8889    1.7119 H       1  UNL11       0.0274
     23 H           4.5743    0.9891    0.5612 H       1  UNL11       0.0274
     24 C           1.4361    0.6109    0.9287 C.2     1  UNL11      -0.0850
     25 H           1.2829    1.6445    1.2674 H       1  UNL11       0.0572
     26 C           0.2093   -0.1158    0.5116 C.3     1  UNL11      -0.0308
     27 H           0.4646   -1.1027    0.0642 H       1  UNL11       0.0310
     28 H          -0.4009   -0.3479    1.4151 H       1  UNL11       0.0310
@<TRIPOS>BOND
     1     8     5    1
     2     7     5    1
     3     6     5    1
     4     5     4    1
     5     3     1    1
     6    12    11    1
     7     4     1    1
     8     4     9    2
     9    18    15    1
    10     1     2    1
    11     1    26    1
    12    17    15    1
    13    27    26    1
    14    11    13    1
    15    11     9    1
    16    11    14    1
    17     9    10    1
    18    15    19    1
    19    15    16    1
    20    26    24    1
    21    26    28    1
    22    23    20    1
    23    19    24    2
    24    19    20    1
    25    24    25    1
    26    20    22    1
    27    20    21    1
