@<TRIPOS>MOLECULE
/home/jramos/Programacion/GITHUB_REPO_DIR/gecos2/examples/03-IsoP_localhost_rdkit_pm3/03-IsoP_g16_conformers/03-IsoP_001_gaussian.xyz
 28 27 0 0 0
SMALL
GASTEIGER

@<TRIPOS>ATOM
      1 C          -0.5836   -0.6828   -0.5221 C.3     1  UNL1       -0.0286
      2 H          -0.6549   -1.7798   -0.3768 H       1  UNL1        0.0313
      3 H          -0.0464   -0.5432   -1.4813 H       1  UNL1        0.0313
      4 C          -1.9498   -0.0761   -0.6152 C.2     1  UNL1       -0.0765
      5 C          -2.0538    1.1628   -1.4283 C.3     1  UNL1       -0.0438
      6 H          -1.8036    0.9602   -2.4784 H       1  UNL1        0.0274
      7 H          -1.3579    1.9297   -1.0614 H       1  UNL1        0.0274
      8 H          -3.0704    1.5883   -1.4015 H       1  UNL1        0.0274
      9 C          -2.9928   -0.6412    0.0080 C.2     1  UNL1       -0.0881
     10 H          -2.8455   -1.5597    0.5911 H       1  UNL1        0.0569
     11 C          -4.3754   -0.1182   -0.0206 C.3     1  UNL1       -0.0466
     12 H          -4.4570    0.8216   -0.5917 H       1  UNL1        0.0272
     13 H          -5.0545   -0.8484   -0.4803 H       1  UNL1        0.0272
     14 H          -4.7360    0.0772    0.9978 H       1  UNL1        0.0272
     15 C           4.0232   -0.6397    0.9257 C.3     1  UNL1       -0.0440
     16 H           4.5369   -0.3400    1.8492 H       1  UNL1        0.0274
     17 H           3.9346   -1.7341    0.9357 H       1  UNL1        0.0274
     18 H           4.6727   -0.3674    0.0825 H       1  UNL1        0.0274
     19 C           2.7056    0.0428    0.8140 C.2     1  UNL1       -0.0796
     20 C           2.7597    1.5278    0.8260 C.3     1  UNL1       -0.0440
     21 H           1.7727    1.9780    0.6294 H       1  UNL1        0.0274
     22 H           3.1057    1.8943    1.8017 H       1  UNL1        0.0274
     23 H           3.4561    1.9005    0.0633 H       1  UNL1        0.0274
     24 C           1.5684   -0.6585    0.7150 C.2     1  UNL1       -0.0850
     25 H           1.6007   -1.7563    0.7090 H       1  UNL1        0.0572
     26 C           0.2123   -0.0577    0.6178 C.3     1  UNL1       -0.0308
     27 H          -0.3148   -0.2119    1.5808 H       1  UNL1        0.0310
     28 H           0.2768    1.0463    0.4818 H       1  UNL1        0.0310
@<TRIPOS>BOND
     1     6     5    1
     2     3     1    1
     3     5     8    1
     4     5     7    1
     5     5     4    1
     6     4     1    1
     7     4     9    2
     8    12    11    1
     9     1     2    1
    10     1    26    1
    11    13    11    1
    12    11     9    1
    13    11    14    1
    14     9    10    1
    15    23    20    1
    16    18    15    1
    17    28    26    1
    18    26    24    1
    19    26    27    1
    20    21    20    1
    21    25    24    1
    22    24    19    2
    23    19    20    1
    24    19    15    1
    25    20    22    1
    26    15    17    1
    27    15    16    1
