@<TRIPOS>MOLECULE
/home/jramos/Programacion/GITHUB_REPO_DIR/gecos2/examples/03-IsoP_localhost_rdkit_pm3/03-IsoP_g16_conformers/03-IsoP_005_gaussian.xyz
 28 27 0 0 0
SMALL
GASTEIGER

@<TRIPOS>ATOM
      1 C          -0.7158   -0.5340   -0.7163 C.3     1  UNL1       -0.0286
      2 H          -0.7605   -1.3953   -0.0117 H       1  UNL1        0.0313
      3 H          -0.3870   -0.9506   -1.6891 H       1  UNL1        0.0313
      4 C          -2.0763    0.0692   -0.8634 C.2     1  UNL1       -0.0765
      5 C          -2.2980    0.8872   -2.0860 C.3     1  UNL1       -0.0438
      6 H          -1.5662    1.7052   -2.1469 H       1  UNL1        0.0274
      7 H          -2.1806    0.2714   -2.9884 H       1  UNL1        0.0274
      8 H          -3.2995    1.3362   -2.1191 H       1  UNL1        0.0274
      9 C          -3.0562   -0.1166    0.0320 C.2     1  UNL1       -0.0881
     10 H          -4.0373    0.3491   -0.1274 H       1  UNL1        0.0569
     11 C          -2.9258   -0.9280    1.2614 C.3     1  UNL1       -0.0466
     12 H          -1.9958   -1.5210    1.2722 H       1  UNL1        0.0272
     13 H          -3.7683   -1.6244    1.3608 H       1  UNL1        0.0272
     14 H          -2.9199   -0.2823    2.1497 H       1  UNL1        0.0272
     15 C           3.7907   -0.6224    1.0117 C.3     1  UNL1       -0.0440
     16 H           4.5597    0.1404    1.1949 H       1  UNL1        0.0274
     17 H           3.8627   -1.3649    1.8182 H       1  UNL1        0.0274
     18 H           4.0437   -1.1292    0.0711 H       1  UNL1        0.0274
     19 C           2.4368   -0.0056    0.9863 C.2     1  UNL1       -0.0796
     20 C           2.0492    0.7207    2.2235 C.3     1  UNL1       -0.0440
     21 H           1.0004    1.0590    2.1915 H       1  UNL1        0.0274
     22 H           2.1681    0.0801    3.1073 H       1  UNL1        0.0274
     23 H           2.6820    1.6068    2.3659 H       1  UNL1        0.0274
     24 C           1.6476   -0.1111   -0.0911 C.2     1  UNL1       -0.0850
     25 H           1.9953   -0.6663   -0.9726 H       1  UNL1        0.0572
     26 C           0.2923    0.4885   -0.2059 C.3     1  UNL1       -0.0308
     27 H          -0.0439    0.9006    0.7724 H       1  UNL1        0.0310
     28 H           0.3472    1.3559   -0.8952 H       1  UNL1        0.0310
@<TRIPOS>BOND
     1     7     5    1
     2     6     5    1
     3     8     5    1
     4     5     4    1
     5     3     1    1
     6    25    24    1
     7    28    26    1
     8     4     1    1
     9     4     9    2
    10     1    26    1
    11     1     2    1
    12    26    24    1
    13    26    27    1
    14    10     9    1
    15    24    19    2
    16     9    11    1
    17    18    15    1
    18    19    15    1
    19    19    20    1
    20    15    16    1
    21    15    17    1
    22    11    12    1
    23    11    13    1
    24    11    14    1
    25    21    20    1
    26    20    23    1
    27    20    22    1
