@<TRIPOS>MOLECULE
/home/jramos/Programacion/GITHUB_REPO_DIR/gecos2/examples/03-IsoP_localhost_rdkit_pm3/03-IsoP_g16_conformers/03-IsoP_008_gaussian.xyz
 28 27 0 0 0
SMALL
GASTEIGER

@<TRIPOS>ATOM
      1 C          -1.1570    1.0659    0.2477 C.3     1  UNL1       -0.0286
      2 H          -1.3137    0.7103    1.2904 H       1  UNL1        0.0313
      3 H          -1.5555    2.0993    0.2132 H       1  UNL1        0.0313
      4 C          -1.9416    0.2281   -0.7121 C.2     1  UNL1       -0.0765
      5 C          -1.9006    0.6798   -2.1297 C.3     1  UNL1       -0.0438
      6 H          -2.5236    1.5736   -2.2676 H       1  UNL1        0.0274
      7 H          -0.8663    0.9466   -2.4083 H       1  UNL1        0.0274
      8 H          -2.2536   -0.0861   -2.8316 H       1  UNL1        0.0274
      9 C          -2.6472   -0.8512   -0.3486 C.2     1  UNL1       -0.0881
     10 H          -3.2066   -1.4148   -1.1067 H       1  UNL1        0.0569
     11 C          -2.7457   -1.3723    1.0316 C.3     1  UNL1       -0.0466
     12 H          -3.7940   -1.4170    1.3548 H       1  UNL1        0.0272
     13 H          -2.1967   -0.7494    1.7571 H       1  UNL1        0.0272
     14 H          -2.3351   -2.3892    1.0883 H       1  UNL1        0.0272
     15 C           2.8239   -1.5225    1.3177 C.3     1  UNL1       -0.0440
     16 H           3.8011   -1.6466    0.8316 H       1  UNL1        0.0274
     17 H           2.9866   -1.5662    2.4033 H       1  UNL1        0.0274
     18 H           2.2035   -2.3850    1.0405 H       1  UNL1        0.0274
     19 C           2.2079   -0.2246    0.9313 C.2     1  UNL1       -0.0796
     20 C           3.0202    0.9809    1.2399 C.3     1  UNL1       -0.0440
     21 H           2.4450    1.9106    1.0965 H       1  UNL1        0.0274
     22 H           3.3740    0.9622    2.2791 H       1  UNL1        0.0274
     23 H           3.9024    1.0299    0.5877 H       1  UNL1        0.0274
     24 C           1.0046   -0.1756    0.3441 C.2     1  UNL1       -0.0850
     25 H           0.4462   -1.1011    0.1470 H       1  UNL1        0.0572
     26 C           0.3306    1.0767   -0.0861 C.3     1  UNL1       -0.0308
     27 H           0.4602    1.1943   -1.1873 H       1  UNL1        0.0310
     28 H           0.8211    1.9610    0.3788 H       1  UNL1        0.0310
@<TRIPOS>BOND
     1     8     5    1
     2     7     5    1
     3     6     5    1
     4     5     4    1
     5    27    26    1
     6    10     9    1
     7     4     9    2
     8     4     1    1
     9     9    11    1
    10    26     1    1
    11    26    24    1
    12    26    28    1
    13    25    24    1
    14     3     1    1
    15     1     2    1
    16    24    19    2
    17    23    20    1
    18    16    15    1
    19    19    20    1
    20    19    15    1
    21    11    14    1
    22    11    12    1
    23    11    13    1
    24    18    15    1
    25    21    20    1
    26    20    22    1
    27    15    17    1
