@<TRIPOS>MOLECULE
/home/jramos/Programacion/GITHUB_REPO_DIR/gecos2/examples/03-IsoP_localhost_rdkit_pm3/03-IsoP_g16_conformers/03-IsoP_005_gaussian.xyz
 28 27 0 0 0
SMALL
GASTEIGER

@<TRIPOS>ATOM
      1 C          -0.7499   -0.6915   -0.5771 C.3     1  UNL11      -0.0286
      2 H          -0.8675   -1.3214    0.3338 H       1  UNL11       0.0313
      3 H          -0.4675   -1.3845   -1.3945 H       1  UNL11       0.0313
      4 C          -2.0509   -0.0317   -0.9063 C.2     1  UNL11      -0.0765
      5 C          -2.2063    0.4398   -2.3086 C.3     1  UNL11      -0.0438
      6 H          -1.4035    1.1416   -2.5762 H       1  UNL11       0.0274
      7 H          -2.1520   -0.4059   -3.0080 H       1  UNL11       0.0274
      8 H          -3.1630    0.9507   -2.4799 H       1  UNL11       0.0274
      9 C          -3.0370    0.1213   -0.0115 C.2     1  UNL11      -0.0881
     10 H          -3.9728    0.6121   -0.3085 H       1  UNL11       0.0569
     11 C          -2.9719   -0.3339    1.3940 C.3     1  UNL11      -0.0466
     12 H          -2.0997   -0.9824    1.5816 H       1  UNL11       0.0272
     13 H          -3.8735   -0.8987    1.6636 H       1  UNL11       0.0272
     14 H          -2.9007    0.5257    2.0738 H       1  UNL11       0.0272
     15 C           3.7425   -0.7103    1.1894 C.3     1  UNL11      -0.0440
     16 H           4.5791    0.0015    1.1724 H       1  UNL11       0.0274
     17 H           3.7526   -1.2091    2.1682 H       1  UNL11       0.0274
     18 H           3.9414   -1.4741    0.4261 H       1  UNL11       0.0274
     19 C           2.4502   -0.0049    0.9738 C.2     1  UNL11      -0.0796
     20 C           2.1394    1.0618    1.9606 C.3     1  UNL11      -0.0440
     21 H           1.1255    1.4712    1.8195 H       1  UNL11       0.0274
     22 H           2.2060    0.6775    2.9869 H       1  UNL11       0.0274
     23 H           2.8512    1.8929    1.8684 H       1  UNL11       0.0274
     24 C           1.6468   -0.3281   -0.0484 C.2     1  UNL11      -0.0850
     25 H           1.9360   -1.1307   -0.7400 H       1  UNL11       0.0572
     26 C           0.3508    0.3366   -0.3454 C.3     1  UNL11      -0.0308
     27 H           0.0607    1.0274    0.4783 H       1  UNL11       0.0310
     28 H           0.4793    0.9756   -1.2431 H       1  UNL11       0.0310
@<TRIPOS>BOND
     1     7     5    1
     2     6     5    1
     3     8     5    1
     4     5     4    1
     5     3     1    1
     6    25    24    1
     7    28    26    1
     8     4     1    1
     9     4     9    2
    10     1    26    1
    11     1     2    1
    12    26    24    1
    13    26    27    1
    14    10     9    1
    15    24    19    2
    16     9    11    1
    17    18    15    1
    18    19    15    1
    19    19    20    1
    20    15    16    1
    21    15    17    1
    22    11    12    1
    23    11    13    1
    24    11    14    1
    25    21    20    1
    26    20    23    1
    27    20    22    1
