@<TRIPOS>MOLECULE
/home/jramos/Programacion/GITHUB_REPO_DIR/gecos2/examples/03-IsoP_localhost_rdkit_pm3/03-IsoP_g16_conformers/03-IsoP_004_gaussian.xyz
 28 27 0 0 0
SMALL
GASTEIGER

@<TRIPOS>ATOM
      1 C          -0.7877   -0.7321   -0.2030 C.3     1  UNL1       -0.0286
      2 H          -0.1986   -1.3573   -0.9022 H       1  UNL1        0.0313
      3 H          -1.1350   -1.4164    0.6048 H       1  UNL1        0.0313
      4 C          -1.9685   -0.1558   -0.9171 C.2     1  UNL1       -0.0765
      5 C          -1.7119    0.3640   -2.2871 C.3     1  UNL1       -0.0438
      6 H          -2.6032    0.8158   -2.7423 H       1  UNL1        0.0274
      7 H          -1.3750   -0.4454   -2.9494 H       1  UNL1        0.0274
      8 H          -0.9229    1.1293   -2.2734 H       1  UNL1        0.0274
      9 C          -3.1960   -0.1158   -0.3803 C.2     1  UNL1       -0.0881
     10 H          -4.0278    0.3177   -0.9504 H       1  UNL1        0.0569
     11 C          -3.5399   -0.6273    0.9639 C.3     1  UNL1       -0.0466
     12 H          -4.4327   -1.2645    0.9229 H       1  UNL1        0.0272
     13 H          -2.7220   -1.2219    1.4045 H       1  UNL1        0.0272
     14 H          -3.7543    0.2040    1.6488 H       1  UNL1        0.0272
     15 C           2.9345    1.2636    0.0176 C.3     1  UNL1       -0.0440
     16 H           3.3189    2.1291    0.5737 H       1  UNL1        0.0274
     17 H           3.7310    0.9181   -0.6545 H       1  UNL1        0.0274
     18 H           2.0950    1.6119   -0.6064 H       1  UNL1        0.0274
     19 C           2.5225    0.1831    0.9509 C.2     1  UNL1       -0.0796
     20 C           3.6298   -0.4422    1.7237 C.3     1  UNL1       -0.0440
     21 H           3.2783   -1.2187    2.4160 H       1  UNL1        0.0274
     22 H           4.3596   -0.9072    1.0469 H       1  UNL1        0.0274
     23 H           4.1629    0.3138    2.3161 H       1  UNL1        0.0274
     24 C           1.2542   -0.2183    1.1096 C.2     1  UNL1       -0.0850
     25 H           1.0200   -1.0264    1.8154 H       1  UNL1        0.0572
     26 C           0.0891    0.3630    0.3925 C.3     1  UNL1       -0.0308
     27 H          -0.4977    0.9755    1.1063 H       1  UNL1        0.0310
     28 H           0.4254    1.0660   -0.4038 H       1  UNL1        0.0310
@<TRIPOS>BOND
     1     7     5    1
     2     6     5    1
     3     5     8    1
     4     5     4    1
     5    10     9    1
     6     4     9    2
     7     4     1    1
     8     2     1    1
     9    17    15    1
    10    18    15    1
    11    28    26    1
    12     9    11    1
    13     1    26    1
    14     1     3    1
    15    15    16    1
    16    15    19    1
    17    26    27    1
    18    26    24    1
    19    12    11    1
    20    19    24    2
    21    19    20    1
    22    11    13    1
    23    11    14    1
    24    22    20    1
    25    24    25    1
    26    20    23    1
    27    20    21    1
