@<TRIPOS>MOLECULE
/home/jramos/Programacion/GITHUB_REPO_DIR/gecos2/examples/03-IsoP_localhost_rdkit_pm3/03-IsoP_g16_conformers/03-IsoP_007_gaussian.xyz
 28 27 0 0 0
SMALL
GASTEIGER

@<TRIPOS>ATOM
      1 C          -0.6411    0.7792   -0.3828 C.3     1  UNL1       -0.0286
      2 H          -0.7773    1.7751    0.0874 H       1  UNL1        0.0313
      3 H          -0.1067    0.9701   -1.3352 H       1  UNL1        0.0313
      4 C          -1.9993    0.2135   -0.6664 C.2     1  UNL1       -0.0765
      5 C          -2.5645    0.5649   -1.9952 C.3     1  UNL1       -0.0438
      6 H          -3.5992    0.2020   -2.1100 H       1  UNL1        0.0274
      7 H          -2.5714    1.6530   -2.1420 H       1  UNL1        0.0274
      8 H          -1.9643    0.1226   -2.8017 H       1  UNL1        0.0274
      9 C          -2.6546   -0.5269    0.2379 C.2     1  UNL1       -0.0881
     10 H          -2.1598   -0.7474    1.1985 H       1  UNL1        0.0569
     11 C          -4.0073   -1.0914    0.0532 C.3     1  UNL1       -0.0466
     12 H          -4.4515   -0.8064   -0.9149 H       1  UNL1        0.0272
     13 H          -3.9775   -2.1881    0.0978 H       1  UNL1        0.0272
     14 H          -4.6821   -0.7436    0.8464 H       1  UNL1        0.0272
     15 C           3.0012   -1.2272    0.3365 C.3     1  UNL1       -0.0440
     16 H           3.3871   -1.9009    1.1131 H       1  UNL1        0.0274
     17 H           2.1205   -1.7094   -0.1186 H       1  UNL1        0.0274
     18 H           3.7723   -1.1364   -0.4399 H       1  UNL1        0.0274
     19 C           2.6717    0.1020    0.9134 C.2     1  UNL1       -0.0796
     20 C           3.8344    0.8737    1.4300 C.3     1  UNL1       -0.0440
     21 H           4.3612    0.3048    2.2081 H       1  UNL1        0.0274
     22 H           3.5436    1.8392    1.8646 H       1  UNL1        0.0274
     23 H           4.5533    1.0759    0.6242 H       1  UNL1        0.0274
     24 C           1.4279    0.5956    0.9812 C.2     1  UNL1       -0.0850
     25 H           1.2567    1.5884    1.4188 H       1  UNL1        0.0572
     26 C           0.2121   -0.1146    0.5071 C.3     1  UNL1       -0.0308
     27 H           0.4832   -1.0483   -0.0351 H       1  UNL1        0.0310
     28 H          -0.3832   -0.4454    1.3895 H       1  UNL1        0.0310
@<TRIPOS>BOND
     1     8     5    1
     2     7     5    1
     3     6     5    1
     4     5     4    1
     5     3     1    1
     6    12    11    1
     7     4     1    1
     8     4     9    2
     9    18    15    1
    10     1     2    1
    11     1    26    1
    12    17    15    1
    13    27    26    1
    14    11    13    1
    15    11     9    1
    16    11    14    1
    17     9    10    1
    18    15    19    1
    19    15    16    1
    20    26    24    1
    21    26    28    1
    22    23    20    1
    23    19    24    2
    24    19    20    1
    25    24    25    1
    26    20    22    1
    27    20    21    1
