# Mol2 file generated by Materials Studio
@<TRIPOS>MOLECULE
Polystyrene
34 35 2 0 0 
SMALL
USER_CHARGES


@<TRIPOS>ATOM
1 C 5.27392 1.99871 -8.56768 C.2 1 styrene 0
2 C1 6.62712 2.01781 -8.20925 C.2 1 styrene 0
3 H1 7.1052 2.95837 -7.93558 H 1 styrene 0
4 C2 7.36627 0.828861 -8.20232 C.2 1 styrene 0
5 H2 8.41017 0.843596 -7.92581 H 1 styrene 0
6 C3 6.75222 -0.37919 -8.55381 C.2 1 styrene 0
7 H3 7.32242 -1.29638 -8.54847 H 1 styrene 0
8 C4 5.39901 -0.39829 -8.91224 C.2 1 styrene 0
9 H4 4.92532 -1.33021 -9.1834 H 1 styrene 0
10 C5 4.65986 0.790662 -8.91918 C.2 1 styrene 0
11 H5 3.61596 0.775928 -9.19568 H 1 styrene 0
12 C6 4.46142 3.30564 -8.5753 C.3 1 styrene 0
13 H62 3.41673 3.04631 -8.82823 H 1 styrene 0
14 C7 5.05721 4.32548 -9.55116 C.3 1 styrene 0
15 H71 6.08079 4.52616 -9.23475 H 1 styrene 0
16 H72 5.0909 3.95316 -10.5942 H 1 styrene 0
17 H73 4.50807 5.28778 -9.55524 H 1 styrene 0
18 C 2.42733 2.58455 -6.56021 C.2 2 styrene 0
19 C1 1.50433 3.63668 -6.59341 C.2 2 styrene 0
20 H1 1.81447 4.64285 -6.31138 H 2 styrene 0
21 C2 0.182998 3.39649 -6.98886 C.2 2 styrene 0
22 H2 -0.529027 4.20813 -7.01448 H 2 styrene 0
23 C3 -0.215342 2.10416 -7.35111 C.2 2 styrene 0
24 H3 -1.23466 1.91887 -7.65617 H 2 styrene 0
25 C4 0.707653 1.05203 -7.3179 C.2 2 styrene 0
26 H4 0.400363 0.0550938 -7.59734 H 2 styrene 0
27 C5 2.02899 1.29223 -6.92245 C.2 2 styrene 0
28 H5 2.74101 0.480583 -6.89683 H 2 styrene 0
29 C6 3.87978 2.84858 -6.12551 C.3 2 styrene 0
30 H61 3.92444 3.24702 -5.09414 H 2 styrene 0
31 H62 4.43634 1.89899 -6.23099 H 2 styrene 0
32 C7 4.46898 3.8423 -7.13185 C.3 2 styrene 0
33 H71 5.50567 4.02377 -6.84822 H 2 styrene 0
34 H73 3.94149 4.81664 -7.13262 H 2 styrene 0
@<TRIPOS>BOND
1 1 2 1
2 1 10 2
3 1 12 1
4 2 4 2
5 2 3 1
6 4 6 1
7 4 5 1
8 6 8 2
9 6 7 1
10 8 10 1
11 8 9 1
12 10 11 1
13 12 13 1
14 12 14 1
15 14 15 1
16 14 16 1
17 14 17 1
18 18 19 2
19 18 27 1
20 18 29 1
21 19 21 1
22 19 20 1
23 21 23 2
24 21 22 1
25 23 25 1
26 23 24 1
27 25 27 2
28 25 26 1
29 27 28 1
30 29 30 1
31 29 31 1
32 29 32 1
33 32 33 1
34 32 34 1
35 12 32 1
@<TRIPOS>SUBSTRUCTURE
1 styrene 1 **** **** Poly
2 styrene 18 **** **** Poly
