../../data/AtacPS_frompdb.sdf


 34 35  0  0  0               999 V2000
    5.2740    1.9990   -8.5680 C   0  0  0  0  0  0  0  0  0  0  0  0  
    6.6270    2.0180   -8.2090 C   0  0  0  0  0  0  0  0  0  0  0  0  
    7.1050    2.9580   -7.9360 H   0  0  0  0  0  0  0  0  0  0  0  0  
    7.3660    0.8290   -8.2020 C   0  0  0  0  0  0  0  0  0  0  0  0  
    8.4100    0.8440   -7.9260 H   0  0  0  0  0  0  0  0  0  0  0  0  
    6.7520   -0.3790   -8.5540 C   0  0  0  0  0  0  0  0  0  0  0  0  
    7.3220   -1.2960   -8.5480 H   0  0  0  0  0  0  0  0  0  0  0  0  
    5.3990   -0.3980   -8.9120 C   0  0  0  0  0  0  0  0  0  0  0  0  
    4.9250   -1.3300   -9.1830 H   0  0  0  0  0  0  0  0  0  0  0  0  
    4.6600    0.7910   -8.9190 C   0  0  0  0  0  0  0  0  0  0  0  0  
    3.6160    0.7760   -9.1960 H   0  0  0  0  0  0  0  0  0  0  0  0  
    4.4610    3.3060   -8.5750 C   0  0  0  0  0  0  0  0  0  0  0  0  
    3.4170    3.0460   -8.8280 H   0  0  0  0  0  0  0  0  0  0  0  0  
    5.0570    4.3250   -9.5510 C   0  0  0  0  0  0  0  0  0  0  0  0  
    6.0810    4.5260   -9.2350 H   0  0  0  0  0  0  0  0  0  0  0  0  
    5.0910    3.9530  -10.5940 H   0  0  0  0  0  0  0  0  0  0  0  0  
    4.5080    5.2880   -9.5550 H   0  0  0  0  0  0  0  0  0  0  0  0  
    2.4270    2.5850   -6.5600 C   0  0  0  0  0  0  0  0  0  0  0  0  
    1.5040    3.6370   -6.5930 C   0  0  0  0  0  0  0  0  0  0  0  0  
    1.8140    4.6430   -6.3110 H   0  0  0  0  0  0  0  0  0  0  0  0  
    0.1830    3.3960   -6.9890 C   0  0  0  0  0  0  0  0  0  0  0  0  
   -0.5290    4.2080   -7.0140 H   0  0  0  0  0  0  0  0  0  0  0  0  
   -0.2150    2.1040   -7.3510 C   0  0  0  0  0  0  0  0  0  0  0  0  
   -1.2350    1.9190   -7.6560 H   0  0  0  0  0  0  0  0  0  0  0  0  
    0.7080    1.0520   -7.3180 C   0  0  0  0  0  0  0  0  0  0  0  0  
    0.4000    0.0550   -7.5970 H   0  0  0  0  0  0  0  0  0  0  0  0  
    2.0290    1.2920   -6.9220 C   0  0  0  0  0  0  0  0  0  0  0  0  
    2.7410    0.4810   -6.8970 H   0  0  0  0  0  0  0  0  0  0  0  0  
    3.8800    2.8490   -6.1260 C   0  0  0  0  0  0  0  0  0  0  0  0  
    3.9240    3.2470   -5.0940 H   0  0  0  0  0  0  0  0  0  0  0  0  
    4.4360    1.8990   -6.2310 H   0  0  0  0  0  0  0  0  0  0  0  0  
    4.4690    3.8420   -7.1320 C   0  0  0  0  0  0  0  0  0  0  0  0  
    5.5060    4.0240   -6.8480 H   0  0  0  0  0  0  0  0  0  0  0  0  
    3.9410    4.8170   -7.1330 H   0  0  0  0  0  0  0  0  0  0  0  0  
  1  2  1  0  0  0  0
  1 10  2  0  0  0  0
  1 12  1  0  0  0  0
  2  4  2  0  0  0  0
  2  3  1  0  0  0  0
  4  6  1  0  0  0  0
  4  5  1  0  0  0  0
  6  8  2  0  0  0  0
  6  7  1  0  0  0  0
  8 10  1  0  0  0  0
  8  9  1  0  0  0  0
 10 11  1  0  0  0  0
 12 13  1  0  0  0  0
 12 14  1  0  0  0  0
 12 32  1  0  0  0  0
 14 15  1  0  0  0  0
 14 16  1  0  0  0  0
 14 17  1  0  0  0  0
 18 19  1  0  0  0  0
 18 27  2  0  0  0  0
 18 29  1  0  0  0  0
 19 21  2  0  0  0  0
 19 20  1  0  0  0  0
 21 23  1  0  0  0  0
 21 22  1  0  0  0  0
 23 25  2  0  0  0  0
 23 24  1  0  0  0  0
 25 27  1  0  0  0  0
 25 26  1  0  0  0  0
 27 28  1  0  0  0  0
 29 30  1  0  0  0  0
 29 31  1  0  0  0  0
 29 32  1  0  0  0  0
 32 33  1  0  0  0  0
 32 34  1  0  0  0  0
M  END
$$$$