../../data/IsoP_frompdb.sdf


 28 27  0  0  0               999 V2000
    2.0880    1.2530   -8.9850 C   0  0  0  0  0  0  0  0  0  0  0  0  
    1.7950    0.2510   -9.2200 H   0  0  0  0  0  0  0  0  0  0  0  0  
    1.9360    1.8780   -9.8400 H   0  0  0  0  0  0  0  0  0  0  0  0  
    3.5670    1.2740   -8.5940 C   0  0  0  0  0  0  0  0  0  0  0  0  
    4.2430    2.6030   -8.2070 C   0  0  0  0  0  0  0  0  0  0  0  0  
    5.2890    2.5810   -8.5120 H   0  0  0  0  0  0  0  0  0  0  0  0  
    3.7350    3.4280   -8.7070 H   0  0  0  0  0  0  0  0  0  0  0  0  
    4.1820    2.7410   -7.1270 H   0  0  0  0  0  0  0  0  0  0  0  0  
    4.2750    0.1360   -8.5870 C   0  0  0  0  0  0  0  0  0  0  0  0  
    3.8050   -0.7870   -8.8560 H   0  0  0  0  0  0  0  0  0  0  0  0  
    5.7530    0.1570   -8.1950 C   0  0  0  0  0  0  0  0  0  0  0  0  
    6.0470    1.1590   -7.9610 H   0  0  0  0  0  0  0  0  0  0  0  0  
    5.9050   -0.4680   -7.3400 H   0  0  0  0  0  0  0  0  0  0  0  0  
    6.3440   -0.2050   -9.0110 H   0  0  0  0  0  0  0  0  0  0  0  0  
   -2.4270    2.8700   -8.6020 C   0  0  0  0  0  0  0  0  0  0  0  0  
   -2.7200    1.8680   -8.8370 H   0  0  0  0  0  0  0  0  0  0  0  0  
   -3.0180    3.2330   -7.7860 H   0  0  0  0  0  0  0  0  0  0  0  0  
   -2.5790    3.4960   -9.4570 H   0  0  0  0  0  0  0  0  0  0  0  0  
   -0.9480    2.8910   -8.2100 C   0  0  0  0  0  0  0  0  0  0  0  0  
   -0.2730    4.2200   -7.8230 C   0  0  0  0  0  0  0  0  0  0  0  0  
    0.7740    4.1990   -8.1290 H   0  0  0  0  0  0  0  0  0  0  0  0  
   -0.7800    5.0450   -8.3240 H   0  0  0  0  0  0  0  0  0  0  0  0  
   -0.3330    4.3580   -6.7440 H   0  0  0  0  0  0  0  0  0  0  0  0  
   -0.2410    1.7530   -8.2030 C   0  0  0  0  0  0  0  0  0  0  0  0  
   -0.7100    0.8300   -8.4720 H   0  0  0  0  0  0  0  0  0  0  0  0  
    1.2380    1.7740   -7.8120 C   0  0  0  0  0  0  0  0  0  0  0  0  
    1.5310    2.7760   -7.5770 H   0  0  0  0  0  0  0  0  0  0  0  0  
    1.3900    1.1490   -6.9570 H   0  0  0  0  0  0  0  0  0  0  0  0  
  1  4  1  0  0  0  0
  1  2  1  0  0  0  0
  1  3  1  0  0  0  0
  1 26  1  0  0  0  0
  4  9  2  0  0  0  0
  4  5  1  0  0  0  0
  5  6  1  0  0  0  0
  5  7  1  0  0  0  0
  5  8  1  0  0  0  0
  9 11  1  0  0  0  0
  9 10  1  0  0  0  0
 11 12  1  0  0  0  0
 11 13  1  0  0  0  0
 11 14  1  0  0  0  0
 15 19  1  0  0  0  0
 15 16  1  0  0  0  0
 15 17  1  0  0  0  0
 15 18  1  0  0  0  0
 19 24  2  0  0  0  0
 19 20  1  0  0  0  0
 20 21  1  0  0  0  0
 20 22  1  0  0  0  0
 20 23  1  0  0  0  0
 24 26  1  0  0  0  0
 24 25  1  0  0  0  0
 26 27  1  0  0  0  0
 26 28  1  0  0  0  0
M  END
$$$$