# Mol2 file generated by Materials Studio
@<TRIPOS>MOLECULE
Polyt_isoprene
28 27 2 0 0 
SMALL
USER_CHARGES


@<TRIPOS>ATOM
1 C 2.08829 1.25294 -8.98533 C.3 1 t_isopr 0
2 HC1 1.79509 0.251037 -9.2201 H 1 t_isopr 0
3 HC3 1.9364 1.8781 -9.84032 H 1 t_isopr 0
4 C1 3.56715 1.27382 -8.59362 C.2 1 t_isopr 0
5 C4 4.2426 2.60267 -8.20697 C.3 1 t_isopr 0
6 H41 5.2888 2.58135 -8.51213 H 1 t_isopr 0
7 H42 3.73548 3.42768 -8.70727 H 1 t_isopr 0
8 H43 4.1823 2.74089 -7.12745 H 1 t_isopr 0
9 C2 4.27462 0.135821 -8.58698 C.2 1 t_isopr 0
10 H2 3.80531 -0.787475 -8.85563 H 1 t_isopr 0
11 C3 5.75348 0.156695 -8.19527 C.3 1 t_isopr 0
12 H31 6.04668 1.1586 -7.9605 H 1 t_isopr 0
13 H32 5.90536 -0.46846 -7.34028 H 1 t_isopr 0
14 H33 6.3441 -0.20544 -9.0107 H 1 t_isopr 0
15 C -2.42696 2.8704 -8.60178 C.3 2 t_isopr 0
16 HC1 -2.72016 1.86849 -8.83655 H 2 t_isopr 0
17 HC2 -3.01758 3.23253 -7.78635 H 2 t_isopr 0
18 HC3 -2.57884 3.49555 -9.45678 H 2 t_isopr 0
19 C1 -0.948102 2.89127 -8.21007 C.2 2 t_isopr 0
20 C4 -0.272644 4.22013 -7.82342 C.3 2 t_isopr 0
21 H41 0.773549 4.1988 -8.12858 H 2 t_isopr 0
22 H42 -0.779768 5.04513 -8.32372 H 2 t_isopr 0
23 H43 -0.332953 4.35834 -6.7439 H 2 t_isopr 0
24 C2 -0.240628 1.75327 -8.20344 C.2 2 t_isopr 0
25 H2 -0.709939 0.829977 -8.47208 H 2 t_isopr 0
26 C3 1.23823 1.77415 -7.81172 C.3 2 t_isopr 0
27 H31 1.53143 2.77606 -7.57696 H 2 t_isopr 0
28 H32 1.39011 1.14899 -6.95673 H 2 t_isopr 0
@<TRIPOS>BOND
1 1 4 1
2 1 2 1
3 1 3 1
4 4 9 2
5 4 5 1
6 5 6 1
7 5 7 1
8 5 8 1
9 9 11 1
10 9 10 1
11 11 12 1
12 11 13 1
13 11 14 1
14 15 19 1
15 15 16 1
16 15 17 1
17 15 18 1
18 19 24 2
19 19 20 1
20 20 21 1
21 20 22 1
22 20 23 1
23 24 26 1
24 24 25 1
25 26 27 1
26 26 28 1
27 1 26 1
@<TRIPOS>SUBSTRUCTURE
1 t_isopr 1 **** **** Poly
2 t_isopr 15 **** **** Poly
