# Mol2 file generated by Materials Studio
@<TRIPOS>MOLECULE
nitrobenzene_mp2
14 14 1 0 0 
SMALL
USER_CHARGES


@<TRIPOS>ATOM
1 C 2.523 0 0 C.2 1 **** -0.1268
2 C 1.823 1.211 0 C.2 1 **** -0.1268
3 C 0.425 1.223 0 C.2 1 **** -0.1268
4 C -0.244 0 0 C.2 1 **** 0.01
5 C 0.425 -1.223 0 C.2 1 **** -0.1268
6 C 1.823 -1.211 0 C.2 1 **** -0.1268
7 H 3.609 0 0 H 1 **** 0.1268
8 H 2.364 2.153 0 H 1 **** 0.1268
9 H -0.142 2.146 0 H 1 **** 0.1268
10 H -0.142 -2.146 0 H 1 **** 0.1268
11 H 2.364 -2.153 0 H 1 **** 0.1268
12 N -1.724 0 0 N.2 1 **** 0.24
13 O -2.29 -1.091 0 O.2 1 **** -0.125
14 O -2.29 1.091 0 O.2 1 **** -0.125
@<TRIPOS>BOND
1 1 2 1
2 1 6 2
3 1 7 1
4 2 3 2
5 2 8 1
6 3 4 1
7 3 9 1
8 4 5 2
9 4 12 1
10 5 6 1
11 5 10 1
12 6 11 1
13 12 13 1
14 12 14 2
@<TRIPOS>SUBSTRUCTURE
1 **** 1 **** **** C6H5
