/home/jramos/PycharmProjects/GeCos/data/nitrobenzene_ms_frompdb.sdf


 14 14  0  0  0               999 V2000
    2.5230    0.0000    0.0000 C   0  0  0  0  0  0  0  0  0  0  0  0  
    1.8230    1.2110    0.0000 C   0  0  0  0  0  0  0  0  0  0  0  0  
    0.4250    1.2230    0.0000 C   0  0  0  0  0  0  0  0  0  0  0  0  
   -0.2440    0.0000    0.0000 C   0  0  0  0  0  0  0  0  0  0  0  0  
    0.4250   -1.2230    0.0000 C   0  0  0  0  0  0  0  0  0  0  0  0  
    1.8230   -1.2110    0.0000 C   0  0  0  0  0  0  0  0  0  0  0  0  
    3.6090    0.0000    0.0000 H   0  0  0  0  0  0  0  0  0  0  0  0  
    2.3640    2.1530    0.0000 H   0  0  0  0  0  0  0  0  0  0  0  0  
   -0.1420    2.1460    0.0000 H   0  0  0  0  0  0  0  0  0  0  0  0  
   -0.1420   -2.1460    0.0000 H   0  0  0  0  0  0  0  0  0  0  0  0  
    2.3640   -2.1530    0.0000 H   0  0  0  0  0  0  0  0  0  0  0  0  
   -1.7240    0.0000    0.0000 N   0  0  0  0  0  0  0  0  0  0  0  0  
   -2.2900   -1.0910    0.0000 O   0  0  0  0  0  0  0  0  0  0  0  0  
   -2.2900    1.0910    0.0000 O   0  0  0  0  0  0  0  0  0  0  0  0  
  1  2  2  0  0  0  0
  1  6  1  0  0  0  0
  1  7  1  0  0  0  0
  2  3  1  0  0  0  0
  2  8  1  0  0  0  0
  3  4  2  0  0  0  0
  3  9  1  0  0  0  0
  4  5  1  0  0  0  0
  4 12  1  0  0  0  0
  5  6  2  0  0  0  0
  5 10  1  0  0  0  0
  6 11  1  0  0  0  0
 12 13  1  0  0  0  0
 12 14  2  0  0  0  0
M  CHG  1  12  +1 
M  CHG  1  13  -1 
M  END
$$$$