# Mol2 file generated by Materials Studio
@<TRIPOS>MOLECULE
Polyethylene_terepthalate
46 47 2 0 0 
SMALL
USER_CHARGES


@<TRIPOS>ATOM
1 C8 -1.58334 0.382832 2.38039 C.2 1 ethylen 0
2 C5 0.933755 0.981068 -0.280397 C.2 1 ethylen 0
3 HC5 1.67328 1.55749 -0.441077 H 1 ethylen 0
4 C6 0.197165 1.11009 0.908003 C.2 1 ethylen 0
5 HC6 0.433249 1.76874 1.55042 H 1 ethylen 0
6 C7 -0.88742 0.258391 1.16906 C.2 1 ethylen 0
7 C10 -1.267 -0.692737 0.213838 C.2 1 ethylen 0
8 HC10 -2.00549 -1.26345 0.39143 H 1 ethylen 0
9 C9 -0.564429 -0.782198 -0.998318 C.2 1 ethylen 0
10 HC9 -0.846981 -1.41068 -1.655 H 1 ethylen 0
11 C4 0.560177 0.0289593 -1.23533 C.2 1 ethylen 0
12 O3 0.513085 -0.200625 -3.55122 O.co2 1 ethylen 0
13 C3 1.23208 -0.0668704 -2.47602 C.2 1 ethylen 0
14 O2 2.55967 -0.0719404 -2.60203 O.co2 1 ethylen 0
15 O2 -1.23148 1.30685 3.21603 O.co2 1 ethylen 0
16 O4 -2.57713 -0.407346 2.67118 O.co2 1 ethylen 0
17 C2 3.52698 -0.174826 -1.68918 C.3 1 ethylen 0
18 H2C2 3.9637 0.667334 -1.61862 H 1 ethylen 0
19 H1C2 3.15864 -0.408088 -0.84736 H 1 ethylen 0
20 C1 4.49251 -1.16573 -2.07167 C.3 1 ethylen 0
21 H2C1 4.85241 -0.954614 -2.92584 H 1 ethylen 0
22 H1C1 4.07402 -2.01834 -2.10879 H 1 ethylen 0
23 H25 5.1961 -1.18985 -1.43189 H 1 ethylen 0
24 C8 4.8432 5.25328 6.90199 C.2 2 ethylen 0
25 C5 1.49608 3.65289 6.99677 C.2 2 ethylen 0
26 HC5 0.58571 3.90442 6.88308 H 2 ethylen 0
27 C6 2.50382 4.62539 6.89562 C.2 2 ethylen 0
28 HC6 2.28115 5.53093 6.71487 H 2 ethylen 0
29 C7 3.85334 4.27003 7.04515 C.2 2 ethylen 0
30 C10 4.19152 2.94502 7.3471 C.2 2 ethylen 0
31 HC10 5.10572 2.70943 7.45363 H 2 ethylen 0
32 C9 3.17881 1.98546 7.50387 C.2 2 ethylen 0
33 HC9 3.41466 1.09364 7.73858 H 2 ethylen 0
34 C4 1.83042 2.32707 7.29407 C.2 2 ethylen 0
35 O3 0.959359 0.529089 8.48856 O.co2 2 ethylen 0
36 C3 0.831147 1.34452 7.4838 C.2 2 ethylen 0
37 O2 -0.210242 1.17854 6.66749 O.co2 2 ethylen 0
38 O2 4.48653 6.4761 6.67088 O.co2 2 ethylen 0
39 O4 6.1074 4.95728 7.00561 O.co2 2 ethylen 0
40 C2 -0.476287 1.69869 5.46822 C.3 2 ethylen 0
41 H2C2 -1.19248 2.31775 5.56189 H 2 ethylen 0
42 H1C2 0.286075 2.15043 5.13135 H 2 ethylen 0
43 C1 -0.867025 0.67677 4.53901 C.3 2 ethylen 0
44 H2C1 -1.61745 0.20116 4.87721 H 2 ethylen 0
45 H1C1 -0.144415 0.0730082 4.4095 H 2 ethylen 0
46 H26 4.83968 6.74173 5.94563 H 2 ethylen 0
@<TRIPOS>BOND
1 20 22 1
2 17 18 1
3 17 20 1
4 20 21 1
5 1 16 2
6 1 6 1
7 1 15 1
8 2 11 1
9 2 4 2
10 2 3 1
11 4 6 1
12 4 5 1
13 6 7 2
14 7 9 1
15 7 8 1
16 9 11 2
17 9 10 1
18 11 13 1
19 12 13 2
20 13 14 1
21 14 17 1
22 17 19 1
23 23 20 1
24 43 45 1
25 40 41 1
26 40 43 1
27 43 44 1
28 24 39 2
29 24 29 1
30 24 38 1
31 25 34 1
32 25 27 2
33 25 26 1
34 27 29 1
35 27 28 1
36 29 30 2
37 30 32 1
38 30 31 1
39 32 34 2
40 32 33 1
41 34 36 1
42 35 36 2
43 36 37 1
44 37 40 1
45 40 42 1
46 46 38 1
47 15 43 1
@<TRIPOS>SUBSTRUCTURE
1 ethylen 1 **** **** Poly
2 ethylen 24 **** **** Poly
