@<TRIPOS>MOLECULE
Polyethylene_terepthalate
 46 47 0 0 0
SMALL
USER_CHARGES

@<TRIPOS>ATOM
      1 C8         -1.5833    0.3828    2.3804 C.2     1  ethylen1    0.0000
      2 C5          0.9338    0.9811   -0.2804 C.2     1  ethylen1    0.0000
      3 HC5         1.6733    1.5575   -0.4411 H       1  ethylen1    0.0000
      4 C6          0.1972    1.1101    0.9080 C.2     1  ethylen1    0.0000
      5 HC6         0.4332    1.7687    1.5504 H       1  ethylen1    0.0000
      6 C7         -0.8874    0.2584    1.1691 C.2     1  ethylen1    0.0000
      7 C10        -1.2670   -0.6927    0.2138 C.2     1  ethylen1    0.0000
      8 HC10       -2.0055   -1.2634    0.3914 H       1  ethylen1    0.0000
      9 C9         -0.5644   -0.7822   -0.9983 C.2     1  ethylen1    0.0000
     10 HC9        -0.8470   -1.4107   -1.6550 H       1  ethylen1    0.0000
     11 C4          0.5602    0.0290   -1.2353 C.2     1  ethylen1    0.0000
     12 O3          0.5131   -0.2006   -3.5512 O.2     1  ethylen1    0.0000
     13 C3          1.2321   -0.0669   -2.4760 C.2     1  ethylen1    0.0000
     14 O2          2.5597   -0.0719   -2.6020 O.3     1  ethylen1    0.0000
     15 O2         -1.2315    1.3069    3.2160 O.3     1  ethylen1    0.0000
     16 O4         -2.5771   -0.4073    2.6712 O.2     1  ethylen1    0.0000
     17 C2          3.5270   -0.1748   -1.6892 C.3     1  ethylen1    0.0000
     18 H2C2        3.9637    0.6673   -1.6186 H       1  ethylen1    0.0000
     19 H1C2        3.1586   -0.4081   -0.8474 H       1  ethylen1    0.0000
     20 C1          4.4925   -1.1657   -2.0717 C.3     1  ethylen1    0.0000
     21 H2C1        4.8524   -0.9546   -2.9258 H       1  ethylen1    0.0000
     22 H1C1        4.0740   -2.0183   -2.1088 H       1  ethylen1    0.0000
     23 H25         5.1961   -1.1899   -1.4319 H       1  ethylen1    0.0000
     24 C8          4.8432    5.2533    6.9020 C.2     2  ethylen2    0.0000
     25 C5          1.4961    3.6529    6.9968 C.2     2  ethylen2    0.0000
     26 HC5         0.5857    3.9044    6.8831 H       2  ethylen2    0.0000
     27 C6          2.5038    4.6254    6.8956 C.2     2  ethylen2    0.0000
     28 HC6         2.2811    5.5309    6.7149 H       2  ethylen2    0.0000
     29 C7          3.8533    4.2700    7.0451 C.2     2  ethylen2    0.0000
     30 C10         4.1915    2.9450    7.3471 C.2     2  ethylen2    0.0000
     31 HC10        5.1057    2.7094    7.4536 H       2  ethylen2    0.0000
     32 C9          3.1788    1.9855    7.5039 C.2     2  ethylen2    0.0000
     33 HC9         3.4147    1.0936    7.7386 H       2  ethylen2    0.0000
     34 C4          1.8304    2.3271    7.2941 C.2     2  ethylen2    0.0000
     35 O3          0.9594    0.5291    8.4886 O.2     2  ethylen2    0.0000
     36 C3          0.8311    1.3445    7.4838 C.2     2  ethylen2    0.0000
     37 O2         -0.2102    1.1785    6.6675 O.3     2  ethylen2    0.0000
     38 O2          4.4865    6.4761    6.6709 O.3     2  ethylen2    0.0000
     39 O4          6.1074    4.9573    7.0056 O.2     2  ethylen2    0.0000
     40 C2         -0.4763    1.6987    5.4682 C.3     2  ethylen2    0.0000
     41 H2C2       -1.1925    2.3178    5.5619 H       2  ethylen2    0.0000
     42 H1C2        0.2861    2.1504    5.1314 H       2  ethylen2    0.0000
     43 C1         -0.8670    0.6768    4.5390 C.3     2  ethylen2    0.0000
     44 H2C1       -1.6175    0.2012    4.8772 H       2  ethylen2    0.0000
     45 H1C1       -0.1444    0.0730    4.4095 H       2  ethylen2    0.0000
     46 H26         4.8397    6.7417    5.9456 H       2  ethylen2    0.0000
@<TRIPOS>BOND
     1    20    22    1
     2    17    18    1
     3    17    20    1
     4    20    21    1
     5     1    16    2
     6     1     6    1
     7     1    15    1
     8     2    11    1
     9     2     4    2
    10     2     3    1
    11     4     6    1
    12     4     5    1
    13     6     7    2
    14     7     9    1
    15     7     8    1
    16     9    11    2
    17     9    10    1
    18    11    13    1
    19    12    13    2
    20    13    14    1
    21    14    17    1
    22    17    19    1
    23    23    20    1
    24    43    45    1
    25    40    41    1
    26    40    43    1
    27    43    44    1
    28    24    39    2
    29    24    29    1
    30    24    38    1
    31    25    34    1
    32    25    27    2
    33    25    26    1
    34    27    29    1
    35    27    28    1
    36    29    30    2
    37    30    32    1
    38    30    31    1
    39    32    34    2
    40    32    33    1
    41    34    36    1
    42    35    36    2
    43    36    37    1
    44    37    40    1
    45    40    42    1
    46    46    38    1
    47    15    43    1
