@<TRIPOS>MOLECULE
Polyethylene_terepthalate
 46 47 0 0 0
SMALL
USER_CHARGES

@<TRIPOS>ATOM
      1 C          -1.8237    0.4421    3.1555 C.2     1  UNL1        0.0000
      2 C          -4.1464    3.2856    2.6141 C.2     1  UNL1        0.0000
      3 H          -4.0999    4.2300    2.5104 H       1  UNL1        0.0000
      4 C          -2.9698    2.5516    2.8343 C.2     1  UNL1        0.0000
      5 H          -2.1299    2.9929    2.8802 H       1  UNL1        0.0000
      6 C          -3.0173    1.1559    2.9742 C.2     1  UNL1        0.0000
      7 C          -4.2533    0.4982    2.9438 C.2     1  UNL1        0.0000
      8 H          -4.2821   -0.4460    3.0450 H       1  UNL1        0.0000
      9 C          -5.4339    1.2401    2.7803 C.2     1  UNL1        0.0000
     10 H          -6.2723    0.7894    2.7908 H       1  UNL1        0.0000
     11 C          -5.3829    2.6314    2.5788 C.2     1  UNL1        0.0000
     12 O          -7.5892    3.0259    3.2073 O.2     1  UNL1        0.0000
     13 C          -6.5905    3.3545    2.4420 C.2     1  UNL1        0.0000
     14 O          -6.7774    4.3230    1.5445 O.3     1  UNL1        0.0000
     15 O          -0.7065    1.0921    3.2264 O.3     1  UNL1        0.0000
     16 O          -1.8240   -0.8562    3.2609 O.2     1  UNL1        0.0000
     17 C          -7.7743    5.1960    1.3909 C.3     1  UNL1        0.0000
     18 H          -8.2605    4.9614    0.6076 H       1  UNL1        0.0000
     19 H          -8.3542    5.1653    2.1403 H       1  UNL1        0.0000
     20 C          -7.2704    6.5315    1.2396 C.3     1  UNL1        0.0000
     21 H          -6.6691    6.5695    0.5043 H       1  UNL1        0.0000
     22 H          -6.8143    6.7899    2.0325 H       1  UNL1        0.0000
     23 H          -7.9934    7.1302    1.0851 H       1  UNL1        0.0000
     24 C           7.9368    3.7529    3.6596 C.2     1  UNL1        0.0000
     25 C           4.2997    3.1671    4.1083 C.2     1  UNL1        0.0000
     26 H           3.4920    3.6692    4.0866 H       1  UNL1        0.0000
     27 C           5.5271    3.8154    3.8974 C.2     1  UNL1        0.0000
     28 H           5.5545    4.7507    3.7337 H       1  UNL1        0.0000
     29 C           6.7276    3.0883    3.9106 C.2     1  UNL1        0.0000
     30 C           6.7030    1.7155    4.1861 C.2     1  UNL1        0.0000
     31 H           7.5182    1.2277    4.2002 H       1  UNL1        0.0000
     32 C           5.4801    1.0797    4.4528 C.2     1  UNL1        0.0000
     33 H           5.4745    0.1526    4.6687 H       1  UNL1        0.0000
     34 C           4.2708    1.7946    4.3796 C.2     1  UNL1        0.0000
     35 O           3.0482    0.2920    5.6702 O.2     1  UNL1        0.0000
     36 C           3.0574    1.1323    4.6779 C.2     1  UNL1        0.0000
     37 O           1.9355    1.2869    3.9737 O.3     1  UNL1        0.0000
     38 O           7.9217    5.0315    3.4572 O.3     1  UNL1        0.0000
     39 O           9.0682    3.1080    3.6354 O.2     1  UNL1        0.0000
     40 C           1.6422    0.9726    2.7109 C.3     1  UNL1        0.0000
     41 H           1.5613    1.7786    2.2121 H       1  UNL1        0.0000
     42 H           2.3328    0.4412    2.3374 H       1  UNL1        0.0000
     43 C           0.4016    0.2547    2.6339 C.3     1  UNL1        0.0000
     44 H           0.4694   -0.5620    3.1157 H       1  UNL1        0.0000
     45 H           0.1998    0.0672    1.7242 H       1  UNL1        0.0000
     46 H           7.3288    5.2196    2.8790 H       1  UNL1        0.0000
@<TRIPOS>BOND
     1    15    43    1
     2    20    22    1
     3    17    18    1
     4    17    20    1
     5    20    21    1
     6     1    16    2
     7     1     6    1
     8     1    15    1
     9     2    11    1
    10     2     4    2
    11     2     3    1
    12     4     6    1
    13     4     5    1
    14     6     7    2
    15     7     9    1
    16     7     8    1
    17     9    11    2
    18     9    10    1
    19    11    13    1
    20    12    13    2
    21    13    14    1
    22    14    17    1
    23    17    19    1
    24    23    20    1
    25    43    45    1
    26    40    41    1
    27    40    43    1
    28    43    44    1
    29    24    39    2
    30    24    29    1
    31    24    38    1
    32    25    34    1
    33    25    27    2
    34    25    26    1
    35    27    29    1
    36    27    28    1
    37    29    30    2
    38    30    32    1
    39    30    31    1
    40    32    34    2
    41    32    33    1
    42    34    36    1
    43    35    36    2
    44    36    37    1
    45    37    40    1
    46    40    42    1
    47    46    38    1
