# Mol2 file generated by Materials Studio
@<TRIPOS>MOLECULE
Polyethylene_terepthalate
46 47 0 0 0 
SMALL
USER_CHARGES


@<TRIPOS>ATOM
1 C8 -1.82373 0.442061 3.15545 C.2 0 **** 0
2 C5 -4.14643 3.28555 2.61411 C.2 0 **** 0
3 HC5 -4.09995 4.23004 2.51044 H 0 **** 0
4 C6 -2.96982 2.55164 2.83426 C.2 0 **** 0
5 HC6 -2.1299 2.99288 2.88022 H 0 **** 0
6 C7 -3.01731 1.15592 2.97416 C.2 0 **** 0
7 C10 -4.25332 0.498246 2.94382 C.2 0 **** 0
8 HC10 -4.2821 -0.445976 3.04497 H 0 **** 0
9 C9 -5.43392 1.24011 2.7803 C.2 0 **** 0
10 HC9 -6.27228 0.789442 2.79075 H 0 **** 0
11 C4 -5.38288 2.6314 2.57883 C.2 0 **** 0
12 O3 -7.58916 3.02595 3.20727 O.co2 0 **** 0
13 C3 -6.59051 3.35449 2.44198 C.2 0 **** 0
14 O -6.77741 4.32301 1.54452 O.co2 0 **** 0
15 O -0.706453 1.09212 3.22637 O.co2 0 **** 0
16 O4 -1.82405 -0.856182 3.26094 O.co2 0 **** 0
17 C2 -7.77433 5.196 1.3909 C.3 0 **** 0
18 H2C2 -8.2605 4.9614 0.607613 H 0 **** 0
19 H1C2 -8.35416 5.16534 2.1403 H 0 **** 0
20 C1 -7.27041 6.53152 1.23964 C.3 0 **** 0
21 H2C1 -6.66909 6.56953 0.504331 H 0 **** 0
22 H1C1 -6.81428 6.78989 2.03252 H 0 **** 0
23 H25 -7.99339 7.13015 1.08511 H 0 **** 0
24 C8 7.93682 3.75295 3.65959 C.2 0 **** 0
25 C5 4.29969 3.16706 4.10832 C.2 0 **** 0
26 HC5 3.49198 3.66916 4.08658 H 0 **** 0
27 C6 5.52714 3.8154 3.89738 C.2 0 **** 0
28 HC6 5.55454 4.75067 3.7337 H 0 **** 0
29 C7 6.72756 3.08829 3.91058 C.2 0 **** 0
30 C10 6.70302 1.71546 4.18607 C.2 0 **** 0
31 HC10 7.51819 1.2277 4.20018 H 0 **** 0
32 C9 5.48007 1.07968 4.45276 C.2 0 **** 0
33 HC9 5.47455 0.15264 4.66866 H 0 **** 0
34 C4 4.27078 1.79463 4.37959 C.2 0 **** 0
35 O3 3.0482 0.291989 5.67019 O.co2 0 **** 0
36 C3 3.05741 1.13228 4.67785 C.2 0 **** 0
37 O2 1.93551 1.28691 3.97369 O.co2 0 **** 0
38 O2 7.92174 5.03152 3.45721 O.co2 0 **** 0
39 O4 9.06819 3.10799 3.63543 O.co2 0 **** 0
40 C2 1.6422 0.97257 2.71086 C.3 0 **** 0
41 H2C2 1.56128 1.77857 2.21211 H 0 **** 0
42 H1C2 2.33276 0.441182 2.33736 H 0 **** 0
43 C1 0.401584 0.254678 2.63387 C.3 0 **** 0
44 H2C1 0.469433 -0.561982 3.11572 H 0 **** 0
45 H1C1 0.199796 0.0671725 1.72415 H 0 **** 0
46 H26 7.3288 5.21963 2.87902 H 0 **** 0
@<TRIPOS>BOND
1 15 43 1
2 20 22 1
3 17 18 1
4 17 20 1
5 20 21 1
6 1 16 2
7 1 6 1
8 1 15 1
9 2 11 1
10 2 4 2
11 2 3 1
12 4 6 1
13 4 5 1
14 6 7 2
15 7 9 1
16 7 8 1
17 9 11 2
18 9 10 1
19 11 13 1
20 12 13 2
21 13 14 1
22 14 17 1
23 17 19 1
24 23 20 1
25 43 45 1
26 40 41 1
27 40 43 1
28 43 44 1
29 24 39 2
30 24 29 1
31 24 38 1
32 25 34 1
33 25 27 2
34 25 26 1
35 27 29 1
36 27 28 1
37 29 30 2
38 30 32 1
39 30 31 1
40 32 34 2
41 32 33 1
42 34 36 1
43 35 36 2
44 36 37 1
45 37 40 1
46 40 42 1
47 46 38 1
