../../data/PET_frompdb.sdf


 46 47  0  0  0               999 V2000
   -1.5830    0.3830    2.3800 C   0  0  0  0  0  0  0  0  0  0  0  0  
    0.9340    0.9810   -0.2800 C   0  0  0  0  0  0  0  0  0  0  0  0  
    1.6730    1.5570   -0.4410 H   0  0  0  0  0  0  0  0  0  0  0  0  
    0.1970    1.1100    0.9080 C   0  0  0  0  0  0  0  0  0  0  0  0  
    0.4330    1.7690    1.5500 H   0  0  0  0  0  0  0  0  0  0  0  0  
   -0.8870    0.2580    1.1690 C   0  0  0  0  0  0  0  0  0  0  0  0  
   -1.2670   -0.6930    0.2140 C   0  0  0  0  0  0  0  0  0  0  0  0  
   -2.0050   -1.2630    0.3910 H   0  0  0  0  0  0  0  0  0  0  0  0  
   -0.5640   -0.7820   -0.9980 C   0  0  0  0  0  0  0  0  0  0  0  0  
   -0.8470   -1.4110   -1.6550 H   0  0  0  0  0  0  0  0  0  0  0  0  
    0.5600    0.0290   -1.2350 C   0  0  0  0  0  0  0  0  0  0  0  0  
    0.5130   -0.2010   -3.5510 O   0  0  0  0  0  0  0  0  0  0  0  0  
    1.2320   -0.0670   -2.4760 C   0  0  0  0  0  0  0  0  0  0  0  0  
    2.5600   -0.0720   -2.6020 O   0  0  0  0  0  0  0  0  0  0  0  0  
   -1.2310    1.3070    3.2160 O   0  0  0  0  0  0  0  0  0  0  0  0  
   -2.5770   -0.4070    2.6710 O   0  0  0  0  0  0  0  0  0  0  0  0  
    3.5270   -0.1750   -1.6890 C   0  0  0  0  0  0  0  0  0  0  0  0  
    3.9640    0.6670   -1.6190 H   0  0  0  0  0  0  0  0  0  0  0  0  
    3.1590   -0.4080   -0.8470 H   0  0  0  0  0  0  0  0  0  0  0  0  
    4.4930   -1.1660   -2.0720 C   0  0  0  0  0  0  0  0  0  0  0  0  
    4.8520   -0.9550   -2.9260 H   0  0  0  0  0  0  0  0  0  0  0  0  
    4.0740   -2.0180   -2.1090 H   0  0  0  0  0  0  0  0  0  0  0  0  
    5.1960   -1.1900   -1.4320 H   0  0  0  0  0  0  0  0  0  0  0  0  
    4.8430    5.2530    6.9020 C   0  0  0  0  0  0  0  0  0  0  0  0  
    1.4960    3.6530    6.9970 C   0  0  0  0  0  0  0  0  0  0  0  0  
    0.5860    3.9040    6.8830 H   0  0  0  0  0  0  0  0  0  0  0  0  
    2.5040    4.6250    6.8960 C   0  0  0  0  0  0  0  0  0  0  0  0  
    2.2810    5.5310    6.7150 H   0  0  0  0  0  0  0  0  0  0  0  0  
    3.8530    4.2700    7.0450 C   0  0  0  0  0  0  0  0  0  0  0  0  
    4.1920    2.9450    7.3470 C   0  0  0  0  0  0  0  0  0  0  0  0  
    5.1060    2.7090    7.4540 H   0  0  0  0  0  0  0  0  0  0  0  0  
    3.1790    1.9850    7.5040 C   0  0  0  0  0  0  0  0  0  0  0  0  
    3.4150    1.0940    7.7390 H   0  0  0  0  0  0  0  0  0  0  0  0  
    1.8300    2.3270    7.2940 C   0  0  0  0  0  0  0  0  0  0  0  0  
    0.9590    0.5290    8.4890 O   0  0  0  0  0  0  0  0  0  0  0  0  
    0.8310    1.3450    7.4840 C   0  0  0  0  0  0  0  0  0  0  0  0  
   -0.2100    1.1790    6.6670 O   0  0  0  0  0  0  0  0  0  0  0  0  
    4.4870    6.4760    6.6710 O   0  0  0  0  0  0  0  0  0  0  0  0  
    6.1070    4.9570    7.0060 O   0  0  0  0  0  0  0  0  0  0  0  0  
   -0.4760    1.6990    5.4680 C   0  0  0  0  0  0  0  0  0  0  0  0  
   -1.1920    2.3180    5.5620 H   0  0  0  0  0  0  0  0  0  0  0  0  
    0.2860    2.1500    5.1310 H   0  0  0  0  0  0  0  0  0  0  0  0  
   -0.8670    0.6770    4.5390 C   0  0  0  0  0  0  0  0  0  0  0  0  
   -1.6170    0.2010    4.8770 H   0  0  0  0  0  0  0  0  0  0  0  0  
   -0.1440    0.0730    4.4100 H   0  0  0  0  0  0  0  0  0  0  0  0  
    4.8400    6.7420    5.9460 H   0  0  0  0  0  0  0  0  0  0  0  0  
  1 16  2  0  0  0  0
  1  6  1  0  0  0  0
  1 15  1  0  0  0  0
  2 11  1  0  0  0  0
  2  4  2  0  0  0  0
  2  3  1  0  0  0  0
  4  6  1  0  0  0  0
  4  5  1  0  0  0  0
  6  7  2  0  0  0  0
  7  9  1  0  0  0  0
  7  8  1  0  0  0  0
  9 11  2  0  0  0  0
  9 10  1  0  0  0  0
 11 13  1  0  0  0  0
 12 13  2  0  0  0  0
 13 14  1  0  0  0  0
 14 17  1  0  0  0  0
 15 43  1  0  0  0  0
 17 18  1  0  0  0  0
 17 20  1  0  0  0  0
 17 19  1  0  0  0  0
 20 22  1  0  0  0  0
 20 21  1  0  0  0  0
 20 23  1  0  0  0  0
 24 39  2  0  0  0  0
 24 29  1  0  0  0  0
 24 38  1  0  0  0  0
 25 34  2  0  0  0  0
 25 27  1  0  0  0  0
 25 26  1  0  0  0  0
 27 29  2  0  0  0  0
 27 28  1  0  0  0  0
 29 30  1  0  0  0  0
 30 32  2  0  0  0  0
 30 31  1  0  0  0  0
 32 34  1  0  0  0  0
 32 33  1  0  0  0  0
 34 36  1  0  0  0  0
 35 36  2  0  0  0  0
 36 37  1  0  0  0  0
 37 40  1  0  0  0  0
 38 46  1  0  0  0  0
 40 41  1  0  0  0  0
 40 43  1  0  0  0  0
 40 42  1  0  0  0  0
 43 45  1  0  0  0  0
 43 44  1  0  0  0  0
M  END
$$$$