# Polyethylene_terepthalate
# Created by GaussView 6.0.16
#

#
#

@<TRIPOS>MOLECULE
Molecule Name
46 47
SMALL
NO_CHARGES


@<TRIPOS>ATOM
1 C1    -1.5833     0.3828     2.3804 C
2 C2     0.9338     0.9811    -0.2804 C
3 H3     1.6733     1.5575    -0.4411 H
4 C4     0.1972     1.1101     0.9080 C
5 H5     0.4332     1.7687     1.5504 H
6 C6    -0.8874     0.2584     1.1691 C
7 C7    -1.2670    -0.6927     0.2138 C
8 H8    -2.0055    -1.2634     0.3914 H
9 C9    -0.5644    -0.7822    -0.9983 C
10 H10    -0.8470    -1.4107    -1.6550 H
11 C11     0.5602     0.0290    -1.2353 C
12 O12     0.5131    -0.2006    -3.5512 O
13 C13     1.2321    -0.0669    -2.4760 C
14 O14     2.5597    -0.0719    -2.6020 O
15 O15    -1.2315     1.3069     3.2160 O
16 O16    -2.5771    -0.4073     2.6712 O
17 C17     3.5270    -0.1748    -1.6892 C
18 H18     3.9637     0.6673    -1.6186 H
19 H19     3.1586    -0.4081    -0.8474 H
20 C20     4.4925    -1.1657    -2.0717 C
21 H21     4.8524    -0.9546    -2.9258 H
22 H22     4.0740    -2.0183    -2.1088 H
23 H23     5.1961    -1.1899    -1.4319 H
24 C24     4.8432     5.2533     6.9020 C
25 C25     1.4961     3.6529     6.9968 C
26 H26     0.5857     3.9044     6.8831 H
27 C27     2.5038     4.6254     6.8956 C
28 H28     2.2811     5.5309     6.7149 H
29 C29     3.8533     4.2700     7.0451 C
30 C30     4.1915     2.9450     7.3471 C
31 H31     5.1057     2.7094     7.4536 H
32 C32     3.1788     1.9855     7.5039 C
33 H33     3.4147     1.0936     7.7386 H
34 C34     1.8304     2.3271     7.2941 C
35 O35     0.9594     0.5291     8.4886 O
36 C36     0.8311     1.3445     7.4838 C
37 O37    -0.2102     1.1785     6.6675 O
38 O38     4.4865     6.4761     6.6709 O
39 O39     6.1074     4.9573     7.0056 O
40 C40    -0.4763     1.6987     5.4682 C
41 H41    -1.1925     2.3178     5.5619 H
42 H42     0.2861     2.1504     5.1314 H
43 C43    -0.8670     0.6768     4.5390 C
44 H44    -1.6175     0.2012     4.8772 H
45 H45    -0.1444     0.0730     4.4095 H
46 H46     4.8397     6.7417     5.9456 H
@<TRIPOS>BOND
1 1 16 2
2 1 6 1
3 1 15 1
4 2 11 1
5 2 4 2
6 2 3 1
7 4 6 1
8 4 5 1
9 6 7 2
10 7 9 1
11 7 8 1
12 9 11 2
13 9 10 1
14 11 13 1
15 12 13 2
16 13 14 1
17 14 17 1
18 15 43 1
19 17 18 1
20 17 20 1
21 17 19 1
22 20 22 1
23 20 21 1
24 20 23 1
25 24 39 2
26 24 29 1
27 24 38 1
28 25 34 1
29 25 27 2
30 25 26 1
31 27 29 1
32 27 28 1
33 29 30 2
34 30 32 1
35 30 31 1
36 32 34 2
37 32 33 1
38 34 36 1
39 35 36 2
40 36 37 1
41 37 40 1
42 38 46 1
43 40 41 1
44 40 43 1
45 40 42 1
46 43 45 1
47 43 44 1
