@<TRIPOS>MOLECULE
/home/jramos/PycharmProjects/GeCos/examples/06-PVA_trueno_openbabel_mp2/PVA_C5.pdb
 18 17 0 0 0
SMALL
GASTEIGER

@<TRIPOS>ATOM
      1 C          -2.2022    1.1580   -0.0082 C.3     1  UNL1       -0.0629
      2 H          -1.9087    0.1042   -0.0465 H       1  UNL1        0.0231
      3 H          -1.8485    1.6477   -0.9210 H       1  UNL1        0.0231
      4 H          -3.2963    1.2012   -0.0022 H       1  UNL1        0.0231
      5 C          -1.6432    1.8474    1.2304 C.3     1  UNL1       -0.0297
      6 H          -2.0054    2.8815    1.2565 H       1  UNL1        0.0287
      7 H          -2.0408    1.3345    2.1147 H       1  UNL1        0.0287
      8 C          -0.1110    1.8288    1.2645 C.3     1  UNL1        0.0548
      9 H           0.2798    2.2893    0.3489 H       1  UNL1        0.0593
     10 C           0.4159    2.5730    2.4964 C.3     1  UNL1       -0.0297
     11 H           0.0724    2.0706    3.4088 H       1  UNL1        0.0287
     12 H           0.0167    3.5938    2.5110 H       1  UNL1        0.0287
     13 C           1.9372    2.6429    2.5389 C.3     1  UNL1       -0.0629
     14 H           2.3322    3.1280    1.6405 H       1  UNL1        0.0231
     15 H           2.2627    3.2233    3.4090 H       1  UNL1        0.0231
     16 H           2.3829    1.6470    2.6193 H       1  UNL1        0.0231
     17 O           0.3219    0.4711    1.2976 O.3     1  UNL1       -0.3918
     18 H           1.2780    0.4602    1.1232 H       1  UNL1        0.2098
@<TRIPOS>BOND
     1     3     1    1
     2     2     1    1
     3     4     1    1
     4     1     5    1
     5     9     8    1
     6     5     6    1
     7     5     8    1
     8     5     7    1
     9     8    17    1
    10     8    10    1
    11    18    17    1
    12    14    13    1
    13    12    10    1
    14    10    13    1
    15    10    11    1
    16    13    16    1
    17    13    15    1
@<TRIPOS>MOLECULE
/home/jramos/PycharmProjects/GeCos/examples/06-PVA_trueno_openbabel_mp2/PVA_C5.pdb
 18 17 0 0 0
SMALL
GASTEIGER

@<TRIPOS>ATOM
      1 C          -2.1851    1.0767   -0.0364 C.3     1  UNL1       -0.0629
      2 H          -1.8475    0.0358   -0.0469 H       1  UNL1        0.0231
      3 H          -1.8274    1.5654   -0.9485 H       1  UNL1        0.0231
      4 H          -3.2796    1.0746   -0.0602 H       1  UNL1        0.0231
      5 C          -1.6906    1.8118    1.2035 C.3     1  UNL1       -0.0297
      6 H          -2.1215    2.8180    1.1993 H       1  UNL1        0.0287
      7 H          -2.0747    1.2887    2.0877 H       1  UNL1        0.0287
      8 C          -0.1610    1.8833    1.2671 C.3     1  UNL1        0.0548
      9 H           0.2239    2.3625    0.3590 H       1  UNL1        0.0593
     10 C           0.3562    2.6260    2.5054 C.3     1  UNL1       -0.0297
     11 H           1.4517    2.5614    2.5251 H       1  UNL1        0.0287
     12 H           0.0172    2.1151    3.4151 H       1  UNL1        0.0287
     13 C          -0.0475    4.0906    2.5591 C.3     1  UNL1       -0.0629
     14 H          -1.1275    4.2060    2.6861 H       1  UNL1        0.0231
     15 H           0.4370    4.5821    3.4092 H       1  UNL1        0.0231
     16 H           0.2543    4.6153    1.6474 H       1  UNL1        0.0231
     17 O           0.3521    0.5506    1.3012 O.3     1  UNL1       -0.3918
     18 H           1.3230    0.6098    1.2961 H       1  UNL1        0.2098
@<TRIPOS>BOND
     1     3     1    1
     2     2     1    1
     3     4     1    1
     4     1     5    1
     5     9     8    1
     6     5     6    1
     7     5     8    1
     8     5     7    1
     9     8    17    1
    10     8    10    1
    11    18    17    1
    12    14    13    1
    13    12    10    1
    14    10    13    1
    15    10    11    1
    16    13    16    1
    17    13    15    1
@<TRIPOS>MOLECULE
/home/jramos/PycharmProjects/GeCos/examples/06-PVA_trueno_openbabel_mp2/PVA_C5.pdb
 18 17 0 0 0
SMALL
GASTEIGER

@<TRIPOS>ATOM
      1 C          -2.1915    1.1484   -0.0763 C.3     1  UNL1       -0.0629
      2 H          -1.8826    0.0993   -0.1201 H       1  UNL1        0.0231
      3 H          -1.8133    1.6590   -0.9663 H       1  UNL1        0.0231
      4 H          -3.2856    1.1757   -0.1062 H       1  UNL1        0.0231
      5 C          -1.6883    1.8183    1.1959 C.3     1  UNL1       -0.0297
      6 H          -2.0784    2.8423    1.2408 H       1  UNL1        0.0287
      7 H          -2.1077    1.2661    2.0439 H       1  UNL1        0.0287
      8 C          -0.1580    1.8457    1.2798 C.3     1  UNL1        0.0548
      9 H           0.2377    2.3563    0.3944 H       1  UNL1        0.0593
     10 C           0.3588    2.5645    2.5340 C.3     1  UNL1       -0.0297
     11 H           0.0226    3.6069    2.5280 H       1  UNL1        0.0287
     12 H           1.4554    2.5786    2.5015 H       1  UNL1        0.0287
     13 C          -0.0544    1.9090    3.8465 C.3     1  UNL1       -0.0629
     14 H           0.2615    0.8616    3.8875 H       1  UNL1        0.0231
     15 H           0.4089    2.4325    4.6883 H       1  UNL1        0.0231
     16 H          -1.1383    1.9502    3.9909 H       1  UNL1        0.0231
     17 O           0.3376    0.5085    1.2563 O.3     1  UNL1       -0.3918
     18 H           1.3089    0.5574    1.2775 H       1  UNL1        0.2098
@<TRIPOS>BOND
     1     3     1    1
     2     2     1    1
     3     4     1    1
     4     1     5    1
     5     9     8    1
     6     5     6    1
     7     5     8    1
     8     5     7    1
     9     8    17    1
    10     8    10    1
    11    18    17    1
    12    14    13    1
    13    12    10    1
    14    10    13    1
    15    10    11    1
    16    13    16    1
    17    13    15    1
@<TRIPOS>MOLECULE
/home/jramos/PycharmProjects/GeCos/examples/06-PVA_trueno_openbabel_mp2/PVA_C5.pdb
 18 17 0 0 0
SMALL
GASTEIGER

@<TRIPOS>ATOM
      1 C          -2.2852    1.1038    2.4792 C.3     1  UNL1       -0.0629
      2 H          -2.0519    1.6415    3.4017 H       1  UNL1        0.0231
      3 H          -1.9240    0.0755    2.5729 H       1  UNL1        0.0231
      4 H          -3.3746    1.0682    2.3897 H       1  UNL1        0.0231
      5 C          -1.6873    1.7892    1.2577 C.3     1  UNL1       -0.0297
      6 H          -1.9861    1.2129    0.3729 H       1  UNL1        0.0287
      7 H          -2.1264    2.7863    1.1468 H       1  UNL1        0.0287
      8 C          -0.1559    1.8852    1.2830 C.3     1  UNL1        0.0548
      9 H           0.1765    2.3583    0.3515 H       1  UNL1        0.0593
     10 C           0.4265    2.6528    2.4771 C.3     1  UNL1       -0.0297
     11 H           1.5216    2.6403    2.4056 H       1  UNL1        0.0287
     12 H           0.1968    2.1332    3.4133 H       1  UNL1        0.0287
     13 C          -0.0447    4.0967    2.5563 C.3     1  UNL1       -0.0629
     14 H          -1.1277    4.1653    2.6864 H       1  UNL1        0.0231
     15 H           0.4208    4.5951    3.4127 H       1  UNL1        0.0231
     16 H           0.2355    4.6478    1.6545 H       1  UNL1        0.0231
     17 O           0.3703    0.5561    1.2886 O.3     1  UNL1       -0.3918
     18 H           1.3410    0.6260    1.2542 H       1  UNL1        0.2098
@<TRIPOS>BOND
     1     3     1    1
     2     2     1    1
     3     4     1    1
     4     1     5    1
     5     9     8    1
     6     5     6    1
     7     5     8    1
     8     5     7    1
     9     8    17    1
    10     8    10    1
    11    18    17    1
    12    14    13    1
    13    12    10    1
    14    10    13    1
    15    10    11    1
    16    13    16    1
    17    13    15    1
@<TRIPOS>MOLECULE
/home/jramos/PycharmProjects/GeCos/examples/06-PVA_trueno_openbabel_mp2/PVA_C5.pdb
 18 17 0 0 0
SMALL
GASTEIGER

@<TRIPOS>ATOM
      1 C          -2.2888    1.1301    2.4821 C.3     1  UNL1       -0.0629
      2 H          -2.0646    1.6355    3.4259 H       1  UNL1        0.0231
      3 H          -1.9463    0.0929    2.5543 H       1  UNL1        0.0231
      4 H          -3.3769    1.1159    2.3668 H       1  UNL1        0.0231
      5 C          -1.6493    1.8474    1.2986 C.3     1  UNL1       -0.0297
      6 H          -1.9922    1.3461    0.3844 H       1  UNL1        0.0287
      7 H          -2.0183    2.8788    1.2592 H       1  UNL1        0.0287
      8 C          -0.1147    1.8442    1.3111 C.3     1  UNL1        0.0548
      9 H           0.2334    2.3250    0.3893 H       1  UNL1        0.0593
     10 C           0.4695    2.5771    2.5245 C.3     1  UNL1       -0.0297
     11 H           0.1831    2.0667    3.4517 H       1  UNL1        0.0287
     12 H           0.0661    3.5954    2.5667 H       1  UNL1        0.0287
     13 C           1.9910    2.6509    2.5003 C.3     1  UNL1       -0.0629
     14 H           2.3476    3.1330    1.5849 H       1  UNL1        0.0231
     15 H           2.3507    3.2334    3.3543 H       1  UNL1        0.0231
     16 H           2.4408    1.6556    2.5669 H       1  UNL1        0.0231
     17 O           0.3319    0.4912    1.2843 O.3     1  UNL1       -0.3918
     18 H           1.2847    0.4961    1.0908 H       1  UNL1        0.2098
@<TRIPOS>BOND
     1     3     1    1
     2     2     1    1
     3     4     1    1
     4     1     5    1
     5     9     8    1
     6     5     6    1
     7     5     8    1
     8     5     7    1
     9     8    17    1
    10     8    10    1
    11    18    17    1
    12    14    13    1
    13    12    10    1
    14    10    13    1
    15    10    11    1
    16    13    16    1
    17    13    15    1
