# Title
# Created by GaussView 6.0.16
#

#
#

@<TRIPOS>MOLECULE
Molecule Name
18 17
SMALL
NO_CHARGES


@<TRIPOS>ATOM
1 C1    -2.1820     1.1410     0.0000 C
2 H2    -1.8250     0.1320     0.0000 H
3 H3    -1.8250     1.6460    -0.8740 H
4 H4    -3.2520     1.1410     0.0000 H
5 C5    -1.6680     1.8670     1.2570 C
6 H6    -2.0250     2.8760     1.2570 H
7 H7    -2.0250     1.3630     2.1310 H
8 C8    -0.1280     1.8670     1.2570 C
9 H9     0.2280     2.3700     0.3830 H
10 C10     0.3850     2.5960     2.5130 C
11 H11     0.0280     2.0930     3.3880 H
12 H12     0.0290     3.6050     2.5110 H
13 C13     1.9250     2.5950     2.5140 C
14 H14     2.2820     3.0970     1.6390 H
15 H15     2.2820     3.1010     3.3860 H
16 H16     2.2810     1.5860     2.5160 H
17 O17     0.3480     0.5190     1.2600 O
18 H18     1.3080     0.5190     1.2600 H
@<TRIPOS>BOND
1 1 2 1
2 1 3 1
3 1 4 1
4 1 5 1
5 5 6 1
6 5 7 1
7 5 8 1
8 8 9 1
9 8 10 1
10 8 17 1
11 10 11 1
12 10 12 1
13 10 13 1
14 13 14 1
15 13 15 1
16 13 16 1
17 17 18 1
