@<TRIPOS>MOLECULE
/home/jramos/PycharmProjects/GeCos/examples/01-IsoP_trueno_rdkit_mp2/01-IsoP_g16_conformers/01-IsoP_1352_gaussian.xyz
 28 27 0 0 0
SMALL
GASTEIGER

@<TRIPOS>ATOM
      1 C           0.2612    0.2300    1.1171 C.3     1  UNL1       -0.0286
      2 H           0.1806   -0.8503    0.9868 H       1  UNL1        0.0313
      3 H          -0.3975    0.4869    1.9518 H       1  UNL1        0.0313
      4 C           1.6730    0.6435    1.4487 C.2     1  UNL1       -0.0765
      5 C           1.8039    1.8680    2.3130 C.3     1  UNL1       -0.0438
      6 H           1.3640    1.6968    3.2979 H       1  UNL1        0.0274
      7 H           1.2757    2.7165    1.8724 H       1  UNL1        0.0274
      8 H           2.8465    2.1527    2.4487 H       1  UNL1        0.0274
      9 C           2.7622    0.0114    0.9733 C.2     1  UNL1       -0.0881
     10 H           3.7356    0.4064    1.2508 H       1  UNL1        0.0569
     11 C           2.7876   -1.1970    0.0872 C.3     1  UNL1       -0.0466
     12 H           1.7891   -1.5439   -0.1687 H       1  UNL1        0.0272
     13 H           3.3127   -0.9799   -0.8450 H       1  UNL1        0.0272
     14 H           3.3188   -2.0218    0.5659 H       1  UNL1        0.0272
     15 C          -3.6528   -0.6107   -1.3755 C.3     1  UNL1       -0.0440
     16 H          -4.2269    0.0764   -0.7557 H       1  UNL1        0.0274
     17 H          -3.9134   -1.6316   -1.0873 H       1  UNL1        0.0274
     18 H          -3.9711   -0.4836   -2.4127 H       1  UNL1        0.0274
     19 C          -2.1740   -0.3754   -1.2373 C.2     1  UNL1       -0.0796
     20 C          -1.3121   -1.2861   -2.0672 C.3     1  UNL1       -0.0440
     21 H          -0.2488   -1.1127   -1.9220 H       1  UNL1        0.0274
     22 H          -1.5362   -1.1633   -3.1292 H       1  UNL1        0.0274
     23 H          -1.5200   -2.3293   -1.8195 H       1  UNL1        0.0274
     24 C          -1.6998    0.5886   -0.4258 C.2     1  UNL1       -0.0850
     25 H          -2.4251    1.1676    0.1405 H       1  UNL1        0.0572
     26 C          -0.2604    0.9163   -0.1599 C.3     1  UNL1       -0.0308
     27 H           0.3768    0.6260   -0.9961 H       1  UNL1        0.0310
     28 H          -0.1494    1.9986   -0.0526 H       1  UNL1        0.0310
@<TRIPOS>BOND
     1    22    20    1
     2    18    15    1
     3    20    21    1
     4    20    23    1
     5    20    19    1
     6    15    19    1
     7    15    17    1
     8    15    16    1
     9    19    24    2
    10    27    26    1
    11    13    11    1
    12    24    26    1
    13    24    25    1
    14    12    11    1
    15    26    28    1
    16    26     1    1
    17    11    14    1
    18    11     9    1
    19     9    10    1
    20     9     4    2
    21     2     1    1
    22     1     4    1
    23     1     3    1
    24     4     5    1
    25     7     5    1
    26     5     8    1
    27     5     6    1
