@<TRIPOS>MOLECULE
/home/jramos/PycharmProjects/GeCos/examples/01-IsoP_trueno_rdkit_mp2/01-IsoP_g16_conformers/01-IsoP_1003_gaussian.xyz
 28 27 0 0 0
SMALL
GASTEIGER

@<TRIPOS>ATOM
      1 C          -0.9417   -0.0201   -0.0816 C.3     1  UNL11      -0.0286
      2 H          -1.5238    0.7377    0.4458 H       1  UNL11       0.0313
      3 H          -0.7114    0.4001   -1.0645 H       1  UNL11       0.0313
      4 C          -1.7267   -1.2961   -0.2527 C.2     1  UNL11      -0.0765
      5 C          -1.3771   -2.1081   -1.4704 C.3     1  UNL11      -0.0438
      6 H          -1.9231   -3.0504   -1.4938 H       1  UNL11       0.0274
      7 H          -0.3090   -2.3353   -1.4972 H       1  UNL11       0.0274
      8 H          -1.6069   -1.5557   -2.3842 H       1  UNL11       0.0274
      9 C          -2.6456   -1.7326    0.6289 C.2     1  UNL11      -0.0881
     10 H          -3.1331   -2.6807    0.4194 H       1  UNL11       0.0569
     11 C          -3.0816   -1.0513    1.8904 C.3     1  UNL11      -0.0466
     12 H          -4.1520   -0.8388    1.8693 H       1  UNL11       0.0272
     13 H          -2.9020   -1.6922    2.7556 H       1  UNL11       0.0272
     14 H          -2.5559   -0.1144    2.0587 H       1  UNL11       0.0272
     15 C           2.7647    0.6451   -1.1077 C.3     1  UNL11      -0.0440
     16 H           2.2328   -0.2849   -1.2914 H       1  UNL11       0.0274
     17 H           3.8159    0.4081   -0.9291 H       1  UNL11       0.0274
     18 H           2.7264    1.2402   -2.0226 H       1  UNL11       0.0274
     19 C           2.1980    1.4291    0.0434 C.2     1  UNL11      -0.0796
     20 C           2.8715    2.7497    0.2959 C.3     1  UNL11      -0.0440
     21 H           2.4249    3.2717    1.1408 H       1  UNL11       0.0274
     22 H           2.8026    3.3962   -0.5818 H       1  UNL11       0.0274
     23 H           3.9349    2.6100    0.5032 H       1  UNL11       0.0274
     24 C           1.1741    1.0172    0.8145 C.2     1  UNL11      -0.0850
     25 H           0.8427    1.6870    1.6042 H       1  UNL11       0.0572
     26 C           0.3832   -0.2491    0.6710 C.3     1  UNL11      -0.0308
     27 H           0.9608   -1.0188    0.1574 H       1  UNL11       0.0310
     28 H           0.1511   -0.6501    1.6610 H       1  UNL11       0.0310
@<TRIPOS>BOND
     1    13    11    1
     2    28    26    1
     3    25    24    1
     4    14    11    1
     5    11    12    1
     6    11     9    1
     7    21    20    1
     8    23    20    1
     9    24    26    1
    10    24    19    2
    11    26    27    1
    12    26     1    1
    13    20    19    1
    14    20    22    1
    15    19    15    1
    16     9    10    1
    17     9     4    2
    18    17    15    1
    19     2     1    1
    20     1     4    1
    21     1     3    1
    22    15    16    1
    23    15    18    1
    24     4     5    1
    25     7     5    1
    26     6     5    1
    27     5     8    1
