@<TRIPOS>MOLECULE
/home/jramos/PycharmProjects/GeCos/examples/01-IsoP_trueno_rdkit_mp2/01-IsoP_g16_conformers/01-IsoP_2752_gaussian.xyz
 28 27 0 0 0
SMALL
GASTEIGER

@<TRIPOS>ATOM
      1 C          -0.9450   -0.1213   -0.4549 C.3     1  UNL11      -0.0286
      2 H          -1.1421    0.2678   -1.4579 H       1  UNL11       0.0313
      3 H          -1.1000    0.7126    0.2315 H       1  UNL11       0.0313
      4 C          -1.8910   -1.2595   -0.1652 C.2     1  UNL11      -0.0765
      5 C          -2.2912   -2.0886   -1.3551 C.3     1  UNL11      -0.0438
      6 H          -2.9113   -2.9352   -1.0629 H       1  UNL11       0.0274
      7 H          -2.8488   -1.4879   -2.0770 H       1  UNL11       0.0274
      8 H          -1.4127   -2.4760   -1.8758 H       1  UNL11       0.0274
      9 C          -2.3217   -1.5697    1.0717 C.2     1  UNL11      -0.0881
     10 H          -2.9810   -2.4271    1.1758 H       1  UNL11       0.0569
     11 C          -1.9891   -0.8560    2.3469 C.3     1  UNL11      -0.0466
     12 H          -2.8923   -0.4806    2.8318 H       1  UNL11       0.0272
     13 H          -1.3188   -0.0144    2.1877 H       1  UNL11       0.0272
     14 H          -1.5080   -1.5346    3.0538 H       1  UNL11       0.0272
     15 C           1.9886    1.3823    1.5568 C.3     1  UNL11      -0.0440
     16 H           1.3184    0.6078    1.9211 H       1  UNL11       0.0274
     17 H           2.9711    1.2230    2.0069 H       1  UNL11       0.0274
     18 H           1.6246    2.3435    1.9259 H       1  UNL11       0.0274
     19 C           2.0937    1.4099    0.0571 C.2     1  UNL11      -0.0796
     20 C           2.9783    2.4951   -0.4915 C.3     1  UNL11      -0.0440
     21 H           3.9965    2.3973   -0.1082 H       1  UNL11       0.0274
     22 H           3.0190    2.4665   -1.5793 H       1  UNL11       0.0274
     23 H           2.6192    3.4811   -0.1877 H       1  UNL11       0.0274
     24 C           1.4656    0.5480   -0.7648 C.2     1  UNL11      -0.0850
     25 H           1.6037    0.6855   -1.8343 H       1  UNL11       0.0572
     26 C           0.5306   -0.5563   -0.3695 C.3     1  UNL11      -0.0308
     27 H           0.7318   -0.9073    0.6435 H       1  UNL11       0.0310
     28 H           0.6867   -1.4156   -1.0271 H       1  UNL11       0.0310
@<TRIPOS>BOND
     1    12    11    1
     2     3     1    1
     3    23    20    1
     4     2     1    1
     5    18    15    1
     6    13    11    1
     7     7     5    1
     8     1     4    1
     9     1    26    1
    10    11     9    1
    11    11    14    1
    12    20    22    1
    13    20    19    1
    14    20    21    1
    15     4     9    2
    16     4     5    1
    17     9    10    1
    18    19    15    1
    19    19    24    2
    20    15    16    1
    21    15    17    1
    22     5     6    1
    23     5     8    1
    24    25    24    1
    25    24    26    1
    26    26    27    1
    27    26    28    1
