@<TRIPOS>MOLECULE
/home/jramos/PycharmProjects/GeCos/examples/01-IsoP_trueno_rdkit_mp2/01-IsoP_g16_conformers/01-IsoP_2005_gaussian.xyz
 28 27 0 0 0
SMALL
GASTEIGER

@<TRIPOS>ATOM
      1 C           0.6628    0.1338   -0.9549 C.3     1  UNL1       -0.0286
      2 H           0.5014    1.1102   -0.4954 H       1  UNL1        0.0313
      3 H           0.3679    0.2371   -2.0032 H       1  UNL1        0.0313
      4 C           2.1111   -0.2799   -0.8813 C.2     1  UNL1       -0.0765
      5 C           2.5950   -1.1501   -2.0092 C.3     1  UNL1       -0.0438
      6 H           3.6236   -1.4728   -1.8530 H       1  UNL1        0.0274
      7 H           2.5435   -0.6165   -2.9607 H       1  UNL1        0.0274
      8 H           1.9720   -2.0415   -2.1110 H       1  UNL1        0.0274
      9 C           2.9250    0.0470    0.1398 C.2     1  UNL1       -0.0881
     10 H           3.9455   -0.3249    0.1100 H       1  UNL1        0.0569
     11 C           2.5788    0.8795    1.3369 C.3     1  UNL1       -0.0466
     12 H           3.2195    1.7613    1.3984 H       1  UNL1        0.0272
     13 H           1.5446    1.2160    1.3223 H       1  UNL1        0.0272
     14 H           2.7304    0.3123    2.2572 H       1  UNL1        0.0272
     15 C          -2.0268    0.6394    1.7697 C.3     1  UNL1       -0.0440
     16 H          -2.6223    0.1900    2.5676 H       1  UNL1        0.0274
     17 H          -2.1656    1.7202    1.8432 H       1  UNL1        0.0274
     18 H          -0.9795    0.4222    1.9638 H       1  UNL1        0.0274
     19 C          -2.4889    0.1484    0.4258 C.2     1  UNL1       -0.0796
     20 C          -3.9218    0.4664    0.0987 C.3     1  UNL1       -0.0440
     21 H          -4.0938    1.5450    0.1104 H       1  UNL1        0.0274
     22 H          -4.5955    0.0304    0.8399 H       1  UNL1        0.0274
     23 H          -4.2021    0.0863   -0.8826 H       1  UNL1        0.0274
     24 C          -1.7149   -0.5289   -0.4432 C.2     1  UNL1       -0.0850
     25 H          -2.1592   -0.8108   -1.3944 H       1  UNL1        0.0572
     26 C          -0.2683   -0.8869   -0.2729 C.3     1  UNL1       -0.0308
     27 H          -0.0871   -1.8758   -0.7023 H       1  UNL1        0.0310
     28 H           0.0049   -0.9574    0.7807 H       1  UNL1        0.0310
@<TRIPOS>BOND
     1     7     5    1
     2     8     5    1
     3     5     6    1
     4     5     4    1
     5     3     1    1
     6    25    24    1
     7     1     4    1
     8     1     2    1
     9     1    26    1
    10    23    20    1
    11     4     9    2
    12    27    26    1
    13    24    26    1
    14    24    19    2
    15    26    28    1
    16    20    21    1
    17    20    19    1
    18    20    22    1
    19    10     9    1
    20     9    11    1
    21    19    15    1
    22    13    11    1
    23    11    12    1
    24    11    14    1
    25    15    17    1
    26    15    18    1
    27    15    16    1
