@<TRIPOS>MOLECULE
/home/jramos/PycharmProjects/GeCos/examples/01-IsoP_trueno_rdkit_mp2/01-IsoP_g16_conformers/01-IsoP_2787_gaussian.xyz
 28 27 0 0 0
SMALL
GASTEIGER

@<TRIPOS>ATOM
      1 C           0.4334    0.6907    0.8049 C.3     1  UNL1       -0.0286
      2 H          -0.5989    0.9813    0.6042 H       1  UNL1        0.0313
      3 H           0.4996    0.5245    1.8840 H       1  UNL1        0.0313
      4 C           1.4014    1.7760    0.4058 C.2     1  UNL1       -0.0765
      5 C           2.6645    1.8496    1.2197 C.3     1  UNL1       -0.0438
      6 H           3.3487    2.6023    0.8301 H       1  UNL1        0.0274
      7 H           2.4420    2.0943    2.2606 H       1  UNL1        0.0274
      8 H           3.1844    0.8890    1.2237 H       1  UNL1        0.0274
      9 C           1.2005    2.6023   -0.6376 C.2     1  UNL1       -0.0881
     10 H           1.9736    3.3333   -0.8579 H       1  UNL1        0.0569
     11 C           0.0111    2.6299   -1.5490 C.3     1  UNL1       -0.0466
     12 H          -0.4818    3.6035   -1.5192 H       1  UNL1        0.0272
     13 H          -0.7256    1.8723   -1.2915 H       1  UNL1        0.0272
     14 H           0.3148    2.4595   -2.5836 H       1  UNL1        0.0272
     15 C          -2.1411   -3.2559    0.6162 C.3     1  UNL1       -0.0440
     16 H          -1.6720   -3.6368    1.5221 H       1  UNL1        0.0274
     17 H          -2.2622   -4.0872   -0.0821 H       1  UNL1        0.0274
     18 H          -3.1446   -2.9073    0.8703 H       1  UNL1        0.0274
     19 C          -1.3305   -2.1510   -0.0032 C.2     1  UNL1       -0.0796
     20 C          -1.9134   -1.5739   -1.2633 C.3     1  UNL1       -0.0440
     21 H          -1.3218   -0.7572   -1.6693 H       1  UNL1        0.0274
     22 H          -2.9210   -1.1976   -1.0735 H       1  UNL1        0.0274
     23 H          -2.0041   -2.3448   -2.0318 H       1  UNL1        0.0274
     24 C          -0.1761   -1.7427    0.5566 C.2     1  UNL1       -0.0850
     25 H           0.1290   -2.2244    1.4823 H       1  UNL1        0.0572
     26 C           0.7173   -0.6373    0.0771 C.3     1  UNL1       -0.0308
     27 H           0.6120   -0.4753   -0.9963 H       1  UNL1        0.0310
     28 H           1.7609   -0.9176    0.2428 H       1  UNL1        0.0310
@<TRIPOS>BOND
     1    14    11    1
     2    23    20    1
     3    21    20    1
     4    11    12    1
     5    11    13    1
     6    11     9    1
     7    20    22    1
     8    20    19    1
     9    27    26    1
    10    10     9    1
    11     9     4    2
    12    17    15    1
    13    19    24    2
    14    19    15    1
    15    26    28    1
    16    26    24    1
    17    26     1    1
    18     4     1    1
    19     4     5    1
    20    24    25    1
    21     2     1    1
    22    15    18    1
    23    15    16    1
    24     1     3    1
    25     6     5    1
    26     5     8    1
    27     5     7    1
