@<TRIPOS>MOLECULE
/home/jramos/PycharmProjects/GeCos/examples/01-IsoP_trueno_rdkit_mp2/01-IsoP_g16_conformers/01-IsoP_3504_gaussian.xyz
 28 27 0 0 0
SMALL
GASTEIGER

@<TRIPOS>ATOM
      1 C          -0.9450   -0.1213   -0.4549 C.3     1  UNL11      -0.0286
      2 H          -1.1000    0.7126    0.2315 H       1  UNL11       0.0313
      3 H          -1.1421    0.2679   -1.4579 H       1  UNL11       0.0313
      4 C          -1.8909   -1.2595   -0.1652 C.2     1  UNL11      -0.0765
      5 C          -2.2912   -2.0886   -1.3552 C.3     1  UNL11      -0.0438
      6 H          -2.9114   -2.9351   -1.0629 H       1  UNL11       0.0274
      7 H          -1.4127   -2.4759   -1.8759 H       1  UNL11       0.0274
      8 H          -2.8488   -1.4878   -2.0770 H       1  UNL11       0.0274
      9 C          -2.3216   -1.5697    1.0718 C.2     1  UNL11      -0.0881
     10 H          -2.9809   -2.4271    1.1757 H       1  UNL11       0.0569
     11 C          -1.9891   -0.8560    2.3469 C.3     1  UNL11      -0.0466
     12 H          -2.8923   -0.4807    2.8319 H       1  UNL11       0.0272
     13 H          -1.3188   -0.0145    2.1878 H       1  UNL11       0.0272
     14 H          -1.5080   -1.5346    3.0538 H       1  UNL11       0.0272
     15 C           1.9886    1.3822    1.5568 C.3     1  UNL11      -0.0440
     16 H           2.9711    1.2229    2.0069 H       1  UNL11       0.0274
     17 H           1.3184    0.6077    1.9210 H       1  UNL11       0.0274
     18 H           1.6246    2.3434    1.9259 H       1  UNL11       0.0274
     19 C           2.0936    1.4099    0.0571 C.2     1  UNL11      -0.0796
     20 C           2.9783    2.4951   -0.4914 C.3     1  UNL11      -0.0440
     21 H           3.9965    2.3973   -0.1081 H       1  UNL11       0.0274
     22 H           3.0189    2.4665   -1.5793 H       1  UNL11       0.0274
     23 H           2.6193    3.4811   -0.1876 H       1  UNL11       0.0274
     24 C           1.4655    0.5480   -0.7647 C.2     1  UNL11      -0.0850
     25 H           1.6037    0.6855   -1.8343 H       1  UNL11       0.0572
     26 C           0.5306   -0.5563   -0.3695 C.3     1  UNL11      -0.0308
     27 H           0.7319   -0.9073    0.6434 H       1  UNL11       0.0310
     28 H           0.6867   -1.4156   -1.0271 H       1  UNL11       0.0310
@<TRIPOS>BOND
     1     8     5    1
     2     3     1    1
     3     7     5    1
     4     5     6    1
     5     5     4    1
     6    25    24    1
     7    22    20    1
     8     1     4    1
     9     1     2    1
    10     1    26    1
    11    28    26    1
    12    24    26    1
    13    24    19    2
    14     4     9    2
    15    20    23    1
    16    20    19    1
    17    20    21    1
    18    26    27    1
    19    19    15    1
    20     9    10    1
    21     9    11    1
    22    15    18    1
    23    15    17    1
    24    15    16    1
    25    13    11    1
    26    11    12    1
    27    11    14    1
