@<TRIPOS>MOLECULE
/home/jramos/PycharmProjects/GeCos/examples/01-IsoP_trueno_rdkit_mp2/01-IsoP_g16_conformers/01-IsoP_3452_gaussian.xyz
 28 27 0 0 0
SMALL
GASTEIGER

@<TRIPOS>ATOM
      1 C           0.8762    0.7786   -0.1532 C.3     1  UNL1       -0.0286
      2 H           0.5443    0.8244    0.8852 H       1  UNL1        0.0313
      3 H           0.8542    1.8066   -0.5265 H       1  UNL1        0.0313
      4 C           2.2793    0.2369   -0.2624 C.2     1  UNL1       -0.0765
      5 C           3.0873    0.7579   -1.4196 C.3     1  UNL1       -0.0438
      6 H           4.0589    0.2695   -1.4817 H       1  UNL1        0.0274
      7 H           2.5657    0.5962   -2.3656 H       1  UNL1        0.0274
      8 H           3.2496    1.8340   -1.3265 H       1  UNL1        0.0274
      9 C           2.7832   -0.6911    0.5723 C.2     1  UNL1       -0.0881
     10 H           3.7976   -1.0352    0.3903 H       1  UNL1        0.0569
     11 C           2.0926   -1.3177    1.7455 C.3     1  UNL1       -0.0466
     12 H           2.0370   -2.4014    1.6259 H       1  UNL1        0.0272
     13 H           1.0785   -0.9468    1.8757 H       1  UNL1        0.0272
     14 H           2.6421   -1.1283    2.6696 H       1  UNL1        0.0272
     15 C          -3.8368    0.9438   -0.1754 C.3     1  UNL1       -0.0440
     16 H          -4.6505    0.2450   -0.3820 H       1  UNL1        0.0274
     17 H          -4.0703    1.4295    0.7747 H       1  UNL1        0.0274
     18 H          -3.8329    1.7034   -0.9557 H       1  UNL1        0.0274
     19 C          -2.5192    0.2230   -0.0995 C.2     1  UNL1       -0.0796
     20 C          -2.4472   -0.8462    0.9552 C.3     1  UNL1       -0.0440
     21 H          -2.6646   -0.4207    1.9373 H       1  UNL1        0.0274
     22 H          -3.1993   -1.6168    0.7718 H       1  UNL1        0.0274
     23 H          -1.4735   -1.3269    1.0065 H       1  UNL1        0.0274
     24 C          -1.5092    0.5383   -0.9322 C.2     1  UNL1       -0.0850
     25 H          -1.6772    1.3474   -1.6386 H       1  UNL1        0.0572
     26 C          -0.1358   -0.0643   -0.9527 C.3     1  UNL1       -0.0308
     27 H           0.2082   -0.1461   -1.9872 H       1  UNL1        0.0310
     28 H          -0.1380   -1.0784   -0.5513 H       1  UNL1        0.0310
@<TRIPOS>BOND
     1     7     5    1
     2    27    26    1
     3    25    24    1
     4     6     5    1
     5     5     8    1
     6     5     4    1
     7    18    15    1
     8    26    24    1
     9    26    28    1
    10    26     1    1
    11    24    19    2
    12     3     1    1
    13    16    15    1
    14     4     1    1
    15     4     9    2
    16    15    19    1
    17    15    17    1
    18     1     2    1
    19    19    20    1
    20    10     9    1
    21     9    11    1
    22    22    20    1
    23    20    23    1
    24    20    21    1
    25    12    11    1
    26    11    13    1
    27    11    14    1
