@<TRIPOS>MOLECULE
/home/jramos/PycharmProjects/GeCos/examples/01-IsoP_trueno_rdkit_mp2/01-IsoP_g16_conformers/01-IsoP_1378_gaussian.xyz
 28 27 0 0 0
SMALL
GASTEIGER

@<TRIPOS>ATOM
      1 C           0.6343    0.6008    0.8343 C.3     1  UNL1       -0.0286
      2 H           0.4308   -0.3936    1.2345 H       1  UNL1        0.0313
      3 H           0.3122    1.3107    1.6017 H       1  UNL1        0.0313
      4 C           2.1039    0.7960    0.5578 C.2     1  UNL1       -0.0765
      5 C           2.6095    2.2054    0.7040 C.3     1  UNL1       -0.0438
      6 H           3.6570    2.2868    0.4163 H       1  UNL1        0.0274
      7 H           2.5095    2.5487    1.7360 H       1  UNL1        0.0274
      8 H           2.0331    2.8946    0.0829 H       1  UNL1        0.0274
      9 C           2.9206   -0.1946    0.1534 C.2     1  UNL1       -0.0881
     10 H           3.9586    0.0574   -0.0454 H       1  UNL1        0.0569
     11 C           2.5559   -1.6325   -0.0598 C.3     1  UNL1       -0.0466
     12 H           3.1497   -2.2858    0.5823 H       1  UNL1        0.0272
     13 H           1.5052   -1.8276    0.1422 H       1  UNL1        0.0272
     14 H           2.7571   -1.9321   -1.0901 H       1  UNL1        0.0272
     15 C          -3.9382   -0.3073    0.1222 C.3     1  UNL1       -0.0440
     16 H          -4.5717   -0.5463   -0.7350 H       1  UNL1        0.0274
     17 H          -4.2184    0.6789    0.4892 H       1  UNL1        0.0274
     18 H          -4.1673   -1.0401    0.8991 H       1  UNL1        0.0274
     19 C          -2.4837   -0.3634   -0.2557 C.2     1  UNL1       -0.0796
     20 C          -2.0201   -1.6958   -0.7760 C.3     1  UNL1       -0.0440
     21 H          -2.2149   -2.4763   -0.0372 H       1  UNL1        0.0274
     22 H          -2.5737   -1.9692   -1.6770 H       1  UNL1        0.0274
     23 H          -0.9588   -1.7139   -1.0105 H       1  UNL1        0.0274
     24 C          -1.6932    0.7188   -0.1266 C.2     1  UNL1       -0.0850
     25 H          -2.1419    1.6201    0.2837 H       1  UNL1        0.0572
     26 C          -0.2263    0.8051   -0.4273 C.3     1  UNL1       -0.0308
     27 H          -0.0016    1.7854   -0.8560 H       1  UNL1        0.0310
     28 H           0.0726    0.0697   -1.1752 H       1  UNL1        0.0310
@<TRIPOS>BOND
     1    22    20    1
     2    28    26    1
     3    14    11    1
     4    23    20    1
     5    27    26    1
     6    20    19    1
     7    20    21    1
     8    16    15    1
     9    26    24    1
    10    26     1    1
    11    19    24    2
    12    19    15    1
    13    24    25    1
    14    11    13    1
    15    11     9    1
    16    11    12    1
    17    10     9    1
    18     8     5    1
    19    15    17    1
    20    15    18    1
    21     9     4    2
    22     6     5    1
    23     4     5    1
    24     4     1    1
    25     5     7    1
    26     1     2    1
    27     1     3    1
