@<TRIPOS>MOLECULE
/home/jramos/PycharmProjects/GeCos/examples/01-IsoP_trueno_rdkit_mp2/01-IsoP_g16_conformers/01-IsoP_406_gaussian.xyz
 28 27 0 0 0
SMALL
GASTEIGER

@<TRIPOS>ATOM
      1 C          -0.8547   -0.3651    0.7108 C.3     1  UNL1       -0.0286
      2 H          -0.6042    0.6676    0.9585 H       1  UNL1        0.0313
      3 H          -0.7946   -0.9270    1.6474 H       1  UNL1        0.0313
      4 C          -2.2499   -0.4766    0.1495 C.2     1  UNL1       -0.0765
      5 C          -2.9608   -1.7721    0.4320 C.3     1  UNL1       -0.0438
      6 H          -3.1202   -1.9016    1.5047 H       1  UNL1        0.0274
      7 H          -3.9290   -1.8143   -0.0653 H       1  UNL1        0.0274
      8 H          -2.3688   -2.6254    0.0937 H       1  UNL1        0.0274
      9 C          -2.8256    0.4797   -0.6028 C.2     1  UNL1       -0.0881
     10 H          -3.8258    0.2890   -0.9819 H       1  UNL1        0.0569
     11 C          -2.2339    1.8021   -0.9865 C.3     1  UNL1       -0.0466
     12 H          -2.8518    2.6265   -0.6255 H       1  UNL1        0.0272
     13 H          -2.1788    1.8987   -2.0725 H       1  UNL1        0.0272
     14 H          -1.2297    1.9369   -0.5911 H       1  UNL1        0.0272
     15 C           3.8470   -0.0511    0.8980 C.3     1  UNL1       -0.0440
     16 H           4.6680   -0.0547    0.1774 H       1  UNL1        0.0274
     17 H           4.0103    0.8026    1.5596 H       1  UNL1        0.0274
     18 H           3.9106   -0.9613    1.4924 H       1  UNL1        0.0274
     19 C           2.5210    0.0596    0.1972 C.2     1  UNL1       -0.0796
     20 C           2.3577    1.2922   -0.6484 C.3     1  UNL1       -0.0440
     21 H           3.1148    1.3203   -1.4352 H       1  UNL1        0.0274
     22 H           1.3787    1.3592   -1.1162 H       1  UNL1        0.0274
     23 H           2.5019    2.1875   -0.0397 H       1  UNL1        0.0274
     24 C           1.5818   -0.8945    0.3393 C.2     1  UNL1       -0.0850
     25 H           1.8114   -1.7286    0.9977 H       1  UNL1        0.0572
     26 C           0.2087   -0.9053   -0.2644 C.3     1  UNL1       -0.0308
     27 H           0.1706   -0.3166   -1.1818 H       1  UNL1        0.0310
     28 H          -0.0546   -1.9281   -0.5468 H       1  UNL1        0.0310
@<TRIPOS>BOND
     1    13    11    1
     2    21    20    1
     3    27    26    1
     4    22    20    1
     5    11    12    1
     6    11     9    1
     7    11    14    1
     8    10     9    1
     9    20    23    1
    10    20    19    1
    11     9     4    2
    12    28    26    1
    13    26    24    1
    14    26     1    1
    15     7     5    1
    16     8     5    1
    17     4     5    1
    18     4     1    1
    19    16    15    1
    20    19    24    2
    21    19    15    1
    22    24    25    1
    23     5     6    1
    24     1     2    1
    25     1     3    1
    26    15    18    1
    27    15    17    1
