@<TRIPOS>MOLECULE
/home/jramos/PycharmProjects/GeCos/examples/01-IsoP_trueno_rdkit_mp2/01-IsoP_g16_conformers/01-IsoP_2752_gaussian.xyz
 28 27 0 0 0
SMALL
GASTEIGER

@<TRIPOS>ATOM
      1 C          -0.6295   -0.8451   -0.5813 C.3     1  UNL1       -0.0286
      2 H          -0.3011   -1.7771   -1.0503 H       1  UNL1        0.0313
      3 H          -0.4421   -0.0548   -1.3099 H       1  UNL1        0.0313
      4 C          -2.0948   -0.9465   -0.2395 C.2     1  UNL1       -0.0765
      5 C          -2.5810   -2.3219    0.1282 C.3     1  UNL1       -0.0438
      6 H          -3.6258   -2.3082    0.4362 H       1  UNL1        0.0274
      7 H          -2.4812   -3.0076   -0.7160 H       1  UNL1        0.0274
      8 H          -1.9918   -2.7394    0.9477 H       1  UNL1        0.0274
      9 C          -2.9235    0.1136   -0.2046 C.2     1  UNL1       -0.0881
     10 H          -3.9569   -0.0635    0.0806 H       1  UNL1        0.0569
     11 C          -2.5783    1.5378   -0.5183 C.3     1  UNL1       -0.0466
     12 H          -3.1844    1.9141   -1.3446 H       1  UNL1        0.0272
     13 H          -1.5314    1.6607   -0.7865 H       1  UNL1        0.0272
     14 H          -2.7786    2.1808    0.3408 H       1  UNL1        0.0272
     15 C           1.9998    1.9039    0.0848 C.3     1  UNL1       -0.0440
     16 H           0.9395    1.9916    0.3080 H       1  UNL1        0.0274
     17 H           2.5539    2.4853    0.8252 H       1  UNL1        0.0274
     18 H           2.1799    2.3739   -0.8844 H       1  UNL1        0.0274
     19 C           2.4798    0.4790    0.0662 C.2     1  UNL1       -0.0796
     20 C           3.9330    0.3094   -0.2812 C.3     1  UNL1       -0.0440
     21 H           4.5673    0.8441    0.4294 H       1  UNL1        0.0274
     22 H           4.2255   -0.7395   -0.2776 H       1  UNL1        0.0274
     23 H           4.1479    0.7218   -1.2697 H       1  UNL1        0.0274
     24 C           1.7042   -0.5878    0.3366 C.2     1  UNL1       -0.0850
     25 H           2.1636   -1.5707    0.2681 H       1  UNL1        0.0572
     26 C           0.2401   -0.5789    0.6624 C.3     1  UNL1       -0.0308
     27 H          -0.0656    0.3705    1.1040 H       1  UNL1        0.0310
     28 H           0.0315   -1.3460    1.4130 H       1  UNL1        0.0310
@<TRIPOS>BOND
     1    12    11    1
     2     3     1    1
     3    23    20    1
     4     2     1    1
     5    18    15    1
     6    13    11    1
     7     7     5    1
     8     1     4    1
     9     1    26    1
    10    11     9    1
    11    11    14    1
    12    20    22    1
    13    20    19    1
    14    20    21    1
    15     4     9    2
    16     4     5    1
    17     9    10    1
    18    19    15    1
    19    19    24    2
    20    15    16    1
    21    15    17    1
    22     5     6    1
    23     5     8    1
    24    25    24    1
    25    24    26    1
    26    26    27    1
    27    26    28    1
