@<TRIPOS>MOLECULE
/home/jramos/PycharmProjects/GeCos/examples/01-IsoP_trueno_rdkit_mp2/01-IsoP_g16_conformers/01-IsoP_2203_gaussian.xyz
 28 27 0 0 0
SMALL
GASTEIGER

@<TRIPOS>ATOM
      1 C          -0.6600   -0.4906    0.5394 C.3     1  UNL1       -0.0286
      2 H          -0.7095   -0.2389    1.6002 H       1  UNL1        0.0313
      3 H          -0.0135   -1.3692    0.4630 H       1  UNL1        0.0313
      4 C          -2.0241   -0.8219   -0.0114 C.2     1  UNL1       -0.0765
      5 C          -2.0356   -1.7964   -1.1579 C.3     1  UNL1       -0.0438
      6 H          -1.3918   -1.4533   -1.9710 H       1  UNL1        0.0274
      7 H          -3.0397   -1.9330   -1.5574 H       1  UNL1        0.0274
      8 H          -1.6563   -2.7709   -0.8427 H       1  UNL1        0.0274
      9 C          -3.1656   -0.2648    0.4340 C.2     1  UNL1       -0.0881
     10 H          -4.0916   -0.5568   -0.0538 H       1  UNL1        0.0569
     11 C          -3.3111    0.7316    1.5438 C.3     1  UNL1       -0.0466
     12 H          -2.3557    0.9983    1.9895 H       1  UNL1        0.0272
     13 H          -3.9561    0.3436    2.3345 H       1  UNL1        0.0272
     14 H          -3.7742    1.6499    1.1782 H       1  UNL1        0.0272
     15 C           2.7074   -0.2799   -1.4225 C.3     1  UNL1       -0.0440
     16 H           3.2552   -1.1952   -1.1885 H       1  UNL1        0.0274
     17 H           1.7552   -0.5636   -1.8633 H       1  UNL1        0.0274
     18 H           3.2893    0.2517   -2.1787 H       1  UNL1        0.0274
     19 C           2.5553    0.5623   -0.1861 C.2     1  UNL1       -0.0796
     20 C           3.8493    0.9304    0.4861 C.3     1  UNL1       -0.0440
     21 H           4.4969    1.4861   -0.1958 H       1  UNL1        0.0274
     22 H           4.3998    0.0363    0.7872 H       1  UNL1        0.0274
     23 H           3.6806    1.5420    1.3711 H       1  UNL1        0.0274
     24 C           1.3755    0.9790    0.3110 C.2     1  UNL1       -0.0850
     25 H           1.3986    1.5665    1.2256 H       1  UNL1        0.0572
     26 C           0.0078    0.6710   -0.2215 C.3     1  UNL1       -0.0308
     27 H           0.0432    0.4317   -1.2851 H       1  UNL1        0.0310
     28 H          -0.6293    1.5543   -0.1276 H       1  UNL1        0.0310
@<TRIPOS>BOND
     1    18    15    1
     2     6     5    1
     3    17    15    1
     4     7     5    1
     5    15    16    1
     6    15    19    1
     7    27    26    1
     8     5     8    1
     9     5     4    1
    10    26    28    1
    11    26    24    1
    12    26     1    1
    13    21    20    1
    14    19    24    2
    15    19    20    1
    16    10     9    1
    17     4     9    2
    18     4     1    1
    19    24    25    1
    20     9    11    1
    21     3     1    1
    22    20    22    1
    23    20    23    1
    24     1     2    1
    25    14    11    1
    26    11    12    1
    27    11    13    1
