@<TRIPOS>MOLECULE
/home/jramos/PycharmProjects/GeCos/examples/01-IsoP_trueno_rdkit_mp2/01-IsoP_g16_conformers/01-IsoP_2323_gaussian.xyz
 28 27 0 0 0
SMALL
GASTEIGER

@<TRIPOS>ATOM
      1 C           0.7689   -0.7648    0.3708 C.3     1  UNL1       -0.0286
      2 H           0.7617   -0.8540   -0.7167 H       1  UNL1        0.0313
      3 H           0.6080   -1.7739    0.7611 H       1  UNL1        0.0313
      4 C           2.0895   -0.2387    0.8741 C.2     1  UNL1       -0.0765
      5 C           2.4997   -0.7169    2.2403 C.3     1  UNL1       -0.0438
      6 H           1.7238   -0.5039    2.9789 H       1  UNL1        0.0274
      7 H           3.4214   -0.2400    2.5714 H       1  UNL1        0.0274
      8 H           2.6527   -1.7983    2.2433 H       1  UNL1        0.0274
      9 C           2.8455    0.6423    0.1925 C.2     1  UNL1       -0.0881
     10 H           3.7681    0.9799    0.6566 H       1  UNL1        0.0569
     11 C           2.5549    1.2235   -1.1579 C.3     1  UNL1       -0.0466
     12 H           1.6163    0.8614   -1.5714 H       1  UNL1        0.0272
     13 H           2.4959    2.3122   -1.1039 H       1  UNL1        0.0272
     14 H           3.3502    0.9835   -1.8662 H       1  UNL1        0.0272
     15 C          -2.0246    0.8542   -1.7479 C.3     1  UNL1       -0.0440
     16 H          -2.7756    1.6432   -1.8295 H       1  UNL1        0.0274
     17 H          -1.9500    0.3867   -2.7321 H       1  UNL1        0.0274
     18 H          -1.0673    1.3180   -1.5238 H       1  UNL1        0.0274
     19 C          -2.4382   -0.1637   -0.7214 C.2     1  UNL1       -0.0796
     20 C          -3.7376   -0.8613   -1.0154 C.3     1  UNL1       -0.0440
     21 H          -4.5563   -0.1421   -1.0907 H       1  UNL1        0.0274
     22 H          -3.6896   -1.3873   -1.9716 H       1  UNL1        0.0274
     23 H          -3.9882   -1.5838   -0.2402 H       1  UNL1        0.0274
     24 C          -1.7327   -0.4544    0.3879 C.2     1  UNL1       -0.0850
     25 H          -2.1265   -1.2273    1.0432 H       1  UNL1        0.0572
     26 C          -0.4122    0.1288    0.7954 C.3     1  UNL1       -0.0308
     27 H          -0.3912    0.2536    1.8813 H       1  UNL1        0.0310
     28 H          -0.2663    1.1231    0.3715 H       1  UNL1        0.0310
@<TRIPOS>BOND
     1    17    15    1
     2    22    20    1
     3    14    11    1
     4    16    15    1
     5    15    18    1
     6    15    19    1
     7    12    11    1
     8    11    13    1
     9    11     9    1
    10    21    20    1
    11    20    19    1
    12    20    23    1
    13    19    24    2
    14     2     1    1
    15     9    10    1
    16     9     4    2
    17     1     3    1
    18     1    26    1
    19     1     4    1
    20    28    26    1
    21    24    26    1
    22    24    25    1
    23    26    27    1
    24     4     5    1
    25     5     8    1
    26     5     7    1
    27     5     6    1
