@<TRIPOS>MOLECULE
/home/jramos/PycharmProjects/GeCos/examples/01-IsoP_trueno_rdkit_mp2/01-IsoP_g16_conformers/01-IsoP_942_gaussian.xyz
 28 27 0 0 0
SMALL
GASTEIGER

@<TRIPOS>ATOM
      1 C          -0.8791   -0.6299   -0.4467 C.3     1  UNL1       -0.0286
      2 H          -0.9883   -0.5877    0.6381 H       1  UNL1        0.0313
      3 H          -0.9150   -1.6894   -0.7163 H       1  UNL1        0.0313
      4 C          -1.9979    0.1018   -1.1445 C.2     1  UNL1       -0.0765
      5 C          -2.3824   -0.4378   -2.4951 C.3     1  UNL1       -0.0438
      6 H          -2.7735   -1.4540   -2.4102 H       1  UNL1        0.0274
      7 H          -1.5162   -0.4855   -3.1588 H       1  UNL1        0.0274
      8 H          -3.1404    0.1817   -2.9729 H       1  UNL1        0.0274
      9 C          -2.5939    1.1990   -0.6415 C.2     1  UNL1       -0.0881
     10 H          -3.3723    1.6678   -1.2373 H       1  UNL1        0.0569
     11 C          -2.3009    1.8622    0.6701 C.3     1  UNL1       -0.0466
     12 H          -1.5080    1.3603    1.2200 H       1  UNL1        0.0272
     13 H          -3.1893    1.8842    1.3042 H       1  UNL1        0.0272
     14 H          -1.9943    2.8988    0.5174 H       1  UNL1        0.0272
     15 C           3.3497   -1.5198    1.4415 C.3     1  UNL1       -0.0440
     16 H           4.2991   -0.9882    1.5382 H       1  UNL1        0.0274
     17 H           3.1003   -1.9050    2.4327 H       1  UNL1        0.0274
     18 H           3.4992   -2.3666    0.7734 H       1  UNL1        0.0274
     19 C           2.2715   -0.6012    0.9363 C.2     1  UNL1       -0.0796
     20 C           2.0080    0.5970    1.8056 C.3     1  UNL1       -0.0440
     21 H           1.7434    0.2775    2.8160 H       1  UNL1        0.0274
     22 H           1.2030    1.2243    1.4311 H       1  UNL1        0.0274
     23 H           2.9068    1.2114    1.8943 H       1  UNL1        0.0274
     24 C           1.6198   -0.8652   -0.2119 C.2     1  UNL1       -0.0850
     25 H           1.8863   -1.7772   -0.7402 H       1  UNL1        0.0572
     26 C           0.5054   -0.0666   -0.8204 C.3     1  UNL1       -0.0308
     27 H           0.5497    0.9794   -0.5145 H       1  UNL1        0.0310
     28 H           0.6092   -0.0712   -1.9087 H       1  UNL1        0.0310
@<TRIPOS>BOND
     1     7     5    1
     2     8     5    1
     3     5     6    1
     4     5     4    1
     5    28    26    1
     6    10     9    1
     7     4     9    2
     8     4     1    1
     9    26    27    1
    10    26     1    1
    11    26    24    1
    12    25    24    1
    13     3     1    1
    14     9    11    1
    15     1     2    1
    16    24    19    2
    17    14    11    1
    18    11    12    1
    19    11    13    1
    20    18    15    1
    21    19    15    1
    22    19    20    1
    23    22    20    1
    24    15    16    1
    25    15    17    1
    26    20    23    1
    27    20    21    1
