@<TRIPOS>MOLECULE
/home/jramos/PycharmProjects/GeCos/examples/01-IsoP_trueno_rdkit_mp2/01-IsoP_g16_conformers/01-IsoP_2414_gaussian.xyz
 28 27 0 0 0
SMALL
GASTEIGER

@<TRIPOS>ATOM
      1 C          -0.6153   -0.0552    1.0675 C.3     1  UNL1       -0.0286
      2 H          -0.2804    0.9718    0.9142 H       1  UNL1        0.0313
      3 H          -0.2944   -0.3340    2.0753 H       1  UNL1        0.0313
      4 C          -2.1161   -0.1680    0.9714 C.2     1  UNL1       -0.0765
      5 C          -2.7405   -1.2464    1.8143 C.3     1  UNL1       -0.0438
      6 H          -2.2932   -2.2195    1.5995 H       1  UNL1        0.0274
      7 H          -2.5798   -1.0508    2.8767 H       1  UNL1        0.0274
      8 H          -3.8129   -1.3214    1.6386 H       1  UNL1        0.0274
      9 C          -2.8666    0.5947    0.1547 C.2     1  UNL1       -0.0881
     10 H          -3.9380    0.4148    0.1405 H       1  UNL1        0.0569
     11 C          -2.3852    1.6832   -0.7560 C.3     1  UNL1       -0.0466
     12 H          -2.8512    2.6379   -0.5046 H       1  UNL1        0.0272
     13 H          -1.3064    1.8139   -0.7111 H       1  UNL1        0.0272
     14 H          -2.6503    1.4638   -1.7920 H       1  UNL1        0.0272
     15 C           2.0900    0.7935   -1.5544 C.3     1  UNL1       -0.0440
     16 H           2.4267    1.8027   -1.3075 H       1  UNL1        0.0274
     17 H           2.5823    0.5167   -2.4894 H       1  UNL1        0.0274
     18 H           1.0184    0.8321   -1.7330 H       1  UNL1        0.0274
     19 C           2.4680   -0.1614   -0.4562 C.2     1  UNL1       -0.0796
     20 C           3.9387   -0.2139   -0.1470 C.3     1  UNL1       -0.0440
     21 H           4.3083    0.7685    0.1557 H       1  UNL1        0.0274
     22 H           4.5109   -0.5092   -1.0294 H       1  UNL1        0.0274
     23 H           4.1545   -0.9213    0.6523 H       1  UNL1        0.0274
     24 C           1.5915   -0.9291    0.2185 C.2     1  UNL1       -0.0850
     25 H           1.9864   -1.5640    1.0076 H       1  UNL1        0.0572
     26 C           0.1017   -0.9602    0.0473 C.3     1  UNL1       -0.0308
     27 H          -0.2555   -1.9862    0.1694 H       1  UNL1        0.0310
     28 H          -0.1919   -0.6529   -0.9572 H       1  UNL1        0.0310
@<TRIPOS>BOND
     1    17    15    1
     2    14    11    1
     3    18    15    1
     4    15    16    1
     5    15    19    1
     6    22    20    1
     7    28    26    1
     8    11    13    1
     9    11    12    1
    10    11     9    1
    11    19    20    1
    12    19    24    2
    13    20    21    1
    14    20    23    1
    15    26    27    1
    16    26    24    1
    17    26     1    1
    18    10     9    1
    19     9     4    2
    20    24    25    1
    21     2     1    1
    22     4     1    1
    23     4     5    1
    24     1     3    1
    25     6     5    1
    26     8     5    1
    27     5     7    1
