@<TRIPOS>MOLECULE
/home/jramos/PycharmProjects/GeCos/examples/01-IsoP_trueno_rdkit_mp2/01-IsoP_g16_conformers/01-IsoP_534_gaussian.xyz
 28 27 0 0 0
SMALL
GASTEIGER

@<TRIPOS>ATOM
      1 C          -0.8160    0.5489   -0.0010 C.3     1  UNL1       -0.0286
      2 H          -0.8064    1.4413    0.6272 H       1  UNL1        0.0313
      3 H          -0.5469    0.8802   -1.0077 H       1  UNL1        0.0313
      4 C          -2.1826   -0.0879   -0.0308 C.2     1  UNL1       -0.0765
      5 C          -2.5185   -0.8312   -1.2954 C.3     1  UNL1       -0.0438
      6 H          -3.4841   -1.3300   -1.2224 H       1  UNL1        0.0274
      7 H          -2.5473   -0.1510   -2.1494 H       1  UNL1        0.0274
      8 H          -1.7628   -1.5881   -1.5180 H       1  UNL1        0.0274
      9 C          -3.0450   -0.0558    1.0021 C.2     1  UNL1       -0.0881
     10 H          -3.9938   -0.5715    0.8815 H       1  UNL1        0.0569
     11 C          -2.8448    0.6191    2.3250 C.3     1  UNL1       -0.0466
     12 H          -2.9128   -0.1037    3.1400 H       1  UNL1        0.0272
     13 H          -3.6176    1.3698    2.5010 H       1  UNL1        0.0272
     14 H          -1.8769    1.1093    2.3982 H       1  UNL1        0.0272
     15 C           3.8945    0.8073   -0.3161 C.3     1  UNL1       -0.0440
     16 H           4.7290    0.1025   -0.3075 H       1  UNL1        0.0274
     17 H           3.9363    1.3969    0.5984 H       1  UNL1        0.0274
     18 H           4.0550    1.4774   -1.1637 H       1  UNL1        0.0274
     19 C           2.5835    0.0822   -0.4466 C.2     1  UNL1       -0.0796
     20 C           2.4523   -0.7601   -1.6852 C.3     1  UNL1       -0.0440
     21 H           1.4807   -1.2395   -1.7723 H       1  UNL1        0.0274
     22 H           3.2197   -1.5372   -1.7030 H       1  UNL1        0.0274
     23 H           2.6046   -0.1457   -2.5751 H       1  UNL1        0.0274
     24 C           1.6307    0.2020    0.4972 C.2     1  UNL1       -0.0850
     25 H           1.8398    0.8601    1.3370 H       1  UNL1        0.0572
     26 C           0.2689   -0.4262    0.4955 C.3     1  UNL1       -0.0308
     27 H           0.2510   -1.3277   -0.1183 H       1  UNL1        0.0310
     28 H           0.0096   -0.7412    1.5096 H       1  UNL1        0.0310
@<TRIPOS>BOND
     1    23    20    1
     2     7     5    1
     3    21    20    1
     4    22    20    1
     5    20    19    1
     6     8     5    1
     7     5     6    1
     8     5     4    1
     9    18    15    1
    10     3     1    1
    11    19    15    1
    12    19    24    2
    13    15    16    1
    14    15    17    1
    15    27    26    1
    16     4     1    1
    17     4     9    2
    18     1    26    1
    19     1     2    1
    20    26    24    1
    21    26    28    1
    22    24    25    1
    23    10     9    1
    24     9    11    1
    25    11    14    1
    26    11    13    1
    27    11    12    1
