@<TRIPOS>MOLECULE
/home/jramos/PycharmProjects/GeCos/examples/01-IsoP_trueno_rdkit_mp2/01-IsoP_g16_conformers/01-IsoP_2949_gaussian.xyz
 28 27 0 0 0
SMALL
GASTEIGER

@<TRIPOS>ATOM
      1 C          -0.8188   -0.0521   -0.6240 C.3     1  UNL1       -0.0286
      2 H          -0.3072    0.5430   -1.3855 H       1  UNL1        0.0313
      3 H          -1.0391   -1.0158   -1.0863 H       1  UNL1        0.0313
      4 C          -2.0808    0.6550   -0.1985 C.2     1  UNL1       -0.0765
      5 C          -2.0097    2.1581   -0.2057 C.3     1  UNL1       -0.0438
      6 H          -1.8486    2.5342   -1.2183 H       1  UNL1        0.0274
      7 H          -1.1743    2.5142    0.4016 H       1  UNL1        0.0274
      8 H          -2.9239    2.6043    0.1836 H       1  UNL1        0.0274
      9 C          -3.1926    0.0174    0.2130 C.2     1  UNL1       -0.0881
     10 H          -4.0367    0.6274    0.5229 H       1  UNL1        0.0569
     11 C          -3.4054   -1.4635    0.2971 C.3     1  UNL1       -0.0466
     12 H          -2.5282   -2.0267   -0.0125 H       1  UNL1        0.0272
     13 H          -3.6460   -1.7602    1.3196 H       1  UNL1        0.0272
     14 H          -4.2440   -1.7734   -0.3292 H       1  UNL1        0.0272
     15 C           3.7717   -1.1846   -0.6196 C.3     1  UNL1       -0.0440
     16 H           4.6163   -1.0665    0.0630 H       1  UNL1        0.0274
     17 H           3.5239   -2.2435   -0.6758 H       1  UNL1        0.0274
     18 H           4.1134   -0.8597   -1.6049 H       1  UNL1        0.0274
     19 C           2.5962   -0.3655   -0.1627 C.2     1  UNL1       -0.0796
     20 C           2.8632    1.1103   -0.0548 C.3     1  UNL1       -0.0440
     21 H           3.2123    1.5000   -1.0134 H       1  UNL1        0.0274
     22 H           1.9856    1.6808    0.2384 H       1  UNL1        0.0274
     23 H           3.6552    1.3041    0.6720 H       1  UNL1        0.0274
     24 C           1.4164   -0.9486    0.1214 C.2     1  UNL1       -0.0850
     25 H           1.3450   -2.0246   -0.0174 H       1  UNL1        0.0572
     26 C           0.1506   -0.2702    0.5537 C.3     1  UNL1       -0.0308
     27 H           0.3597    0.6883    1.0304 H       1  UNL1        0.0310
     28 H          -0.3545   -0.8822    1.3056 H       1  UNL1        0.0310
@<TRIPOS>BOND
     1    18    15    1
     2     2     1    1
     3     6     5    1
     4     3     1    1
     5    21    20    1
     6    17    15    1
     7     1     4    1
     8     1    26    1
     9    15    19    1
    10    15    16    1
    11    14    11    1
    12     5     4    1
    13     5     8    1
    14     5     7    1
    15     4     9    2
    16    19    20    1
    17    19    24    2
    18    20    22    1
    19    20    23    1
    20    25    24    1
    21    12    11    1
    22    24    26    1
    23     9    11    1
    24     9    10    1
    25    11    13    1
    26    26    27    1
    27    26    28    1
