@<TRIPOS>MOLECULE
/home/jramos/PycharmProjects/GeCos/examples/01-IsoP_trueno_rdkit_mp2/01-IsoP_g16_conformers/01-IsoP_3244_gaussian.xyz
 28 27 0 0 0
SMALL
GASTEIGER

@<TRIPOS>ATOM
      1 C          -0.7410    0.2344   -0.7809 C.3     1  UNL1       -0.0286
      2 H          -0.5679    1.1470   -0.2084 H       1  UNL1        0.0313
      3 H          -0.5346    0.4853   -1.8254 H       1  UNL1        0.0313
      4 C          -2.1676   -0.2373   -0.6525 C.2     1  UNL1       -0.0765
      5 C          -2.7187   -0.9683   -1.8463 C.3     1  UNL1       -0.0438
      6 H          -2.7580   -0.3126   -2.7189 H       1  UNL1        0.0274
      7 H          -2.0835   -1.8155   -2.1142 H       1  UNL1        0.0274
      8 H          -3.7228   -1.3456   -1.6564 H       1  UNL1        0.0274
      9 C          -2.9044   -0.0771    0.4626 C.2     1  UNL1       -0.0881
     10 H          -3.9141   -0.4783    0.4616 H       1  UNL1        0.0569
     11 C          -2.4839    0.6025    1.7304 C.3     1  UNL1       -0.0466
     12 H          -1.4632    0.9750    1.6817 H       1  UNL1        0.0272
     13 H          -3.1397    1.4449    1.9585 H       1  UNL1        0.0272
     14 H          -2.5461   -0.0860    2.5753 H       1  UNL1        0.0272
     15 C           3.9038    0.5902   -0.0471 C.3     1  UNL1       -0.0440
     16 H           4.1134    0.3530   -1.0890 H       1  UNL1        0.0274
     17 H           4.0487    1.6634    0.0959 H       1  UNL1        0.0274
     18 H           4.6461    0.0850    0.5751 H       1  UNL1        0.0274
     19 C           2.5106    0.1806    0.3434 C.2     1  UNL1       -0.0796
     20 C           2.1463    0.4735    1.7725 C.3     1  UNL1       -0.0440
     21 H           1.1239    0.1950    2.0155 H       1  UNL1        0.0274
     22 H           2.8156   -0.0553    2.4548 H       1  UNL1        0.0274
     23 H           2.2630    1.5395    1.9793 H       1  UNL1        0.0274
     24 C           1.6864   -0.4039   -0.5465 C.2     1  UNL1       -0.0850
     25 H           2.0594   -0.5420   -1.5583 H       1  UNL1        0.0572
     26 C           0.2679   -0.8330   -0.3153 C.3     1  UNL1       -0.0308
     27 H           0.0778   -1.7627   -0.8582 H       1  UNL1        0.0310
     28 H           0.0826   -1.0513    0.7371 H       1  UNL1        0.0310
@<TRIPOS>BOND
     1     6     5    1
     2     7     5    1
     3     5     8    1
     4     5     4    1
     5     3     1    1
     6    25    24    1
     7    16    15    1
     8    27    26    1
     9     1     4    1
    10     1    26    1
    11     1     2    1
    12     4     9    2
    13    24    26    1
    14    24    19    2
    15    26    28    1
    16    15    17    1
    17    15    19    1
    18    15    18    1
    19    19    20    1
    20    10     9    1
    21     9    11    1
    22    12    11    1
    23    11    13    1
    24    11    14    1
    25    20    23    1
    26    20    21    1
    27    20    22    1
