@<TRIPOS>MOLECULE
/home/jramos/PycharmProjects/GeCos/examples/01-IsoP_trueno_rdkit_mp2/01-IsoP_g16_conformers/01-IsoP_534_gaussian.xyz
 28 27 0 0 0
SMALL
GASTEIGER

@<TRIPOS>ATOM
      1 C          -0.9457    0.0383   -0.0439 C.3     1  UNL11      -0.0286
      2 H          -1.4469    0.8554    0.4778 H       1  UNL11       0.0313
      3 H          -0.7311    0.4044   -1.0517 H       1  UNL11       0.0313
      4 C          -1.8276   -1.1819   -0.1305 C.2     1  UNL11      -0.0765
      5 C          -1.5937   -2.0609   -1.3293 C.3     1  UNL11      -0.0438
      6 H          -2.2065   -2.9607   -1.2919 H       1  UNL11       0.0274
      7 H          -1.8246   -1.5266   -2.2534 H       1  UNL11       0.0274
      8 H          -0.5469   -2.3670   -1.3929 H       1  UNL11       0.0274
      9 C          -2.7341   -1.5171    0.8063 C.2     1  UNL11      -0.0881
     10 H          -3.2977   -2.4337    0.6556 H       1  UNL11       0.0569
     11 C          -3.0615   -0.7604    2.0576 C.3     1  UNL11      -0.0466
     12 H          -2.8892   -1.3810    2.9388 H       1  UNL11       0.0272
     13 H          -4.1138   -0.4705    2.0743 H       1  UNL11       0.0272
     14 H          -2.4626    0.1407    2.1661 H       1  UNL11       0.0272
     15 C           3.0704    2.5313    0.0593 C.3     1  UNL11      -0.0440
     16 H           4.1293    2.3212    0.2259 H       1  UNL11       0.0274
     17 H           2.7017    3.1149    0.9014 H       1  UNL11       0.0274
     18 H           3.0080    3.1490   -0.8394 H       1  UNL11       0.0274
     19 C           2.2926    1.2556   -0.1116 C.2     1  UNL11      -0.0796
     20 C           2.7479    0.3908   -1.2543 C.3     1  UNL11      -0.0440
     21 H           2.1426   -0.5034   -1.3780 H       1  UNL11       0.0274
     22 H           3.7864    0.0836   -1.1120 H       1  UNL11       0.0274
     23 H           2.7106    0.9537   -2.1894 H       1  UNL11       0.0274
     24 C           1.2780    0.9484    0.7186 C.2     1  UNL11      -0.0850
     25 H           1.0325    1.6690    1.4949 H       1  UNL11       0.0572
     26 C           0.3924   -0.2604    0.6593 C.3     1  UNL11      -0.0308
     27 H           0.8888   -1.0887    0.1521 H       1  UNL11       0.0310
     28 H           0.1776   -0.6071    1.6735 H       1  UNL11       0.0310
@<TRIPOS>BOND
     1    23    20    1
     2     7     5    1
     3    21    20    1
     4    22    20    1
     5    20    19    1
     6     8     5    1
     7     5     6    1
     8     5     4    1
     9    18    15    1
    10     3     1    1
    11    19    15    1
    12    19    24    2
    13    15    16    1
    14    15    17    1
    15    27    26    1
    16     4     1    1
    17     4     9    2
    18     1    26    1
    19     1     2    1
    20    26    24    1
    21    26    28    1
    22    24    25    1
    23    10     9    1
    24     9    11    1
    25    11    14    1
    26    11    13    1
    27    11    12    1
