@<TRIPOS>MOLECULE
/home/jramos/PycharmProjects/GeCos/examples/01-IsoP_trueno_rdkit_mp2/01-IsoP_g16_conformers/01-IsoP_890_gaussian.xyz
 28 27 0 0 0
SMALL
GASTEIGER

@<TRIPOS>ATOM
      1 C          -0.7018    0.6384    0.1882 C.3     1  UNL1       -0.0286
      2 H          -0.8282    1.5133   -0.4518 H       1  UNL1        0.0313
      3 H          -0.0577    0.9536    1.0138 H       1  UNL1        0.0313
      4 C          -2.0235    0.1624    0.7363 C.2     1  UNL1       -0.0765
      5 C          -1.9567   -0.5165    2.0776 C.3     1  UNL1       -0.0438
      6 H          -2.9293   -0.9029    2.3798 H       1  UNL1        0.0274
      7 H          -1.2518   -1.3509    2.0603 H       1  UNL1        0.0274
      8 H          -1.6089    0.1767    2.8465 H       1  UNL1        0.0274
      9 C          -3.1909    0.2755    0.0760 C.2     1  UNL1       -0.0881
     10 H          -4.0801   -0.1264    0.5539 H       1  UNL1        0.0569
     11 C          -3.4114    0.9010   -1.2678 C.3     1  UNL1       -0.0466
     12 H          -3.8394    0.1771   -1.9636 H       1  UNL1        0.0272
     13 H          -4.1161    1.7320   -1.2005 H       1  UNL1        0.0272
     14 H          -2.4899    1.2762   -1.7068 H       1  UNL1        0.0272
     15 C           2.8036   -1.0069    0.6758 C.3     1  UNL1       -0.0440
     16 H           3.3258   -0.3992    1.4178 H       1  UNL1        0.0274
     17 H           3.4439   -1.8661    0.4643 H       1  UNL1        0.0274
     18 H           1.8848   -1.3707    1.1285 H       1  UNL1        0.0274
     19 C           2.5661   -0.2059   -0.5743 C.2     1  UNL1       -0.0796
     20 C           3.8090    0.3625   -1.2017 C.3     1  UNL1       -0.0440
     21 H           3.5794    0.9282   -2.1034 H       1  UNL1        0.0274
     22 H           4.5095   -0.4330   -1.4657 H       1  UNL1        0.0274
     23 H           4.3293    1.0240   -0.5052 H       1  UNL1        0.0274
     24 C           1.3556    0.0062   -1.1243 C.2     1  UNL1       -0.0850
     25 H           1.3148    0.6220   -2.0194 H       1  UNL1        0.0572
     26 C           0.0290   -0.4623   -0.6047 C.3     1  UNL1       -0.0308
     27 H           0.1417   -1.3456    0.0254 H       1  UNL1        0.0310
     28 H          -0.6068   -0.7625   -1.4416 H       1  UNL1        0.0310
@<TRIPOS>BOND
     1    21    20    1
     2    25    24    1
     3    12    11    1
     4    14    11    1
     5    22    20    1
     6    28    26    1
     7    11    13    1
     8    11     9    1
     9    20    19    1
    10    20    23    1
    11    24    26    1
    12    24    19    2
    13    26    27    1
    14    26     1    1
    15    19    15    1
    16     2     1    1
    17     9    10    1
    18     9     4    2
    19     1     4    1
    20     1     3    1
    21    17    15    1
    22    15    18    1
    23    15    16    1
    24     4     5    1
    25     7     5    1
    26     5     6    1
    27     5     8    1
