@<TRIPOS>MOLECULE
/home/jramos/PycharmProjects/GeCos/examples/01-IsoP_trueno_rdkit_mp2/01-IsoP_g16_conformers/01-IsoP_2967_gaussian.xyz
 28 27 0 0 0
SMALL
GASTEIGER

@<TRIPOS>ATOM
      1 C          -0.9417   -0.0201   -0.0815 C.3     1  UNL11      -0.0286
      2 H          -1.5239    0.7376    0.4457 H       1  UNL11       0.0313
      3 H          -0.7114    0.4001   -1.0646 H       1  UNL11       0.0313
      4 C          -1.7267   -1.2961   -0.2527 C.2     1  UNL11      -0.0765
      5 C          -1.3771   -2.1081   -1.4704 C.3     1  UNL11      -0.0438
      6 H          -1.6069   -1.5558   -2.3842 H       1  UNL11       0.0274
      7 H          -1.9230   -3.0504   -1.4938 H       1  UNL11       0.0274
      8 H          -0.3089   -2.3353   -1.4971 H       1  UNL11       0.0274
      9 C          -2.6456   -1.7325    0.6289 C.2     1  UNL11      -0.0881
     10 H          -3.1330   -2.6807    0.4194 H       1  UNL11       0.0569
     11 C          -3.0815   -1.0513    1.8903 C.3     1  UNL11      -0.0466
     12 H          -4.1520   -0.8387    1.8692 H       1  UNL11       0.0272
     13 H          -2.5558   -0.1143    2.0587 H       1  UNL11       0.0272
     14 H          -2.9020   -1.6921    2.7556 H       1  UNL11       0.0272
     15 C           2.7646    0.6451   -1.1077 C.3     1  UNL11      -0.0440
     16 H           3.8159    0.4081   -0.9291 H       1  UNL11       0.0274
     17 H           2.7263    1.2401   -2.0226 H       1  UNL11       0.0274
     18 H           2.2328   -0.2850   -1.2913 H       1  UNL11       0.0274
     19 C           2.1980    1.4291    0.0434 C.2     1  UNL11      -0.0796
     20 C           2.8715    2.7497    0.2960 C.3     1  UNL11      -0.0440
     21 H           3.9350    2.6100    0.5032 H       1  UNL11       0.0274
     22 H           2.8026    3.3962   -0.5819 H       1  UNL11       0.0274
     23 H           2.4249    3.2717    1.1408 H       1  UNL11       0.0274
     24 C           1.1740    1.0171    0.8145 C.2     1  UNL11      -0.0850
     25 H           0.8428    1.6870    1.6043 H       1  UNL11       0.0572
     26 C           0.3832   -0.2491    0.6709 C.3     1  UNL11      -0.0308
     27 H           0.1511   -0.6500    1.6610 H       1  UNL11       0.0310
     28 H           0.9607   -1.0189    0.1574 H       1  UNL11       0.0310
@<TRIPOS>BOND
     1     6     5    1
     2     7     5    1
     3     5     8    1
     4     5     4    1
     5     3     1    1
     6     4     1    1
     7     4     9    2
     8    17    15    1
     9     2     1    1
    10    10     9    1
    11     1    26    1
    12     9    11    1
    13    12    11    1
    14    22    20    1
    15    18    15    1
    16    15    19    1
    17    15    16    1
    18    11    13    1
    19    11    14    1
    20    19    20    1
    21    19    24    2
    22    26    28    1
    23    26    24    1
    24    26    27    1
    25    20    23    1
    26    20    21    1
    27    24    25    1
