@<TRIPOS>MOLECULE
/home/jramos/PycharmProjects/GeCos/examples/01-IsoP_trueno_rdkit_mp2/01-IsoP_g16_conformers/01-IsoP_2954_gaussian.xyz
 28 27 0 0 0
SMALL
GASTEIGER

@<TRIPOS>ATOM
      1 C          -0.8177   -0.2659   -0.5876 C.3     1  UNL11      -0.0286
      2 H          -0.7964   -0.1533   -1.6754 H       1  UNL11       0.0313
      3 H          -1.0456    0.7215   -0.1834 H       1  UNL11       0.0313
      4 C          -1.8725   -1.2754   -0.2099 C.2     1  UNL11      -0.0765
      5 C          -2.0935   -2.3844   -1.2023 C.3     1  UNL11      -0.0438
      6 H          -2.4649   -1.9889   -2.1502 H       1  UNL11       0.0274
      7 H          -2.8107   -3.1159   -0.8323 H       1  UNL11       0.0274
      8 H          -1.1591   -2.9064   -1.4206 H       1  UNL11       0.0274
      9 C          -2.5480   -1.2424    0.9538 C.2     1  UNL11      -0.0881
     10 H          -3.2689   -2.0336    1.1408 H       1  UNL11       0.0569
     11 C          -2.4171   -0.2213    2.0429 C.3     1  UNL11      -0.0466
     12 H          -1.6761    0.5400    1.8099 H       1  UNL11       0.0272
     13 H          -3.3695    0.2801    2.2254 H       1  UNL11       0.0272
     14 H          -2.1227   -0.6949    2.9814 H       1  UNL11       0.0272
     15 C           3.2020    2.1990   -0.5127 C.3     1  UNL11      -0.0440
     16 H           2.8562    3.2346   -0.5499 H       1  UNL11       0.0274
     17 H           3.4453    1.8834   -1.5261 H       1  UNL11       0.0274
     18 H           4.1210    2.1933    0.0777 H       1  UNL11       0.0274
     19 C           2.1617    1.3084    0.1085 C.2     1  UNL11      -0.0796
     20 C           1.7738    1.6792    1.5131 C.3     1  UNL11      -0.0440
     21 H           0.9985    1.0370    1.9230 H       1  UNL11       0.0274
     22 H           2.6414    1.6326    2.1753 H       1  UNL11       0.0274
     23 H           1.4093    2.7083    1.5432 H       1  UNL11       0.0274
     24 C           1.6460    0.2677   -0.5726 C.2     1  UNL11      -0.0850
     25 H           1.9920    0.1160   -1.5920 H       1  UNL11       0.0572
     26 C           0.5841   -0.6812   -0.1016 C.3     1  UNL11      -0.0308
     27 H           0.5675   -0.7545    0.9866 H       1  UNL11       0.0310
     28 H           0.8060   -1.6856   -0.4720 H       1  UNL11       0.0310
@<TRIPOS>BOND
     1     8     5    1
     2     7     5    1
     3     6     5    1
     4     5     4    1
     5    28    26    1
     6    25    24    1
     7     2     1    1
     8     4     1    1
     9     4     9    2
    10    26    24    1
    11    26     1    1
    12    26    27    1
    13    24    19    2
    14     1     3    1
    15    10     9    1
    16    17    15    1
    17     9    11    1
    18    19    15    1
    19    19    20    1
    20    15    18    1
    21    15    16    1
    22    11    14    1
    23    11    12    1
    24    11    13    1
    25    21    20    1
    26    20    22    1
    27    20    23    1
