@<TRIPOS>MOLECULE
/home/jramos/PycharmProjects/GeCos/examples/01-IsoP_trueno_rdkit_mp2/01-IsoP_g16_conformers/01-IsoP_1504_gaussian.xyz
 28 27 0 0 0
SMALL
GASTEIGER

@<TRIPOS>ATOM
      1 C          -0.8177   -0.2660   -0.5877 C.3     1  UNL11      -0.0286
      2 H          -0.7965   -0.1532   -1.6754 H       1  UNL11       0.0313
      3 H          -1.0455    0.7216   -0.1834 H       1  UNL11       0.0313
      4 C          -1.8725   -1.2754   -0.2099 C.2     1  UNL11      -0.0765
      5 C          -2.0935   -2.3844   -1.2023 C.3     1  UNL11      -0.0438
      6 H          -2.8107   -3.1159   -0.8322 H       1  UNL11       0.0274
      7 H          -1.1591   -2.9065   -1.4205 H       1  UNL11       0.0274
      8 H          -2.4649   -1.9889   -2.1502 H       1  UNL11       0.0274
      9 C          -2.5481   -1.2423    0.9538 C.2     1  UNL11      -0.0881
     10 H          -3.2689   -2.0335    1.1409 H       1  UNL11       0.0569
     11 C          -2.4171   -0.2212    2.0429 C.3     1  UNL11      -0.0466
     12 H          -1.6761    0.5400    1.8100 H       1  UNL11       0.0272
     13 H          -3.3695    0.2801    2.2254 H       1  UNL11       0.0272
     14 H          -2.1227   -0.6949    2.9814 H       1  UNL11       0.0272
     15 C           3.2019    2.1991   -0.5127 C.3     1  UNL11      -0.0440
     16 H           2.8562    3.2346   -0.5498 H       1  UNL11       0.0274
     17 H           3.4453    1.8835   -1.5261 H       1  UNL11       0.0274
     18 H           4.1210    2.1934    0.0777 H       1  UNL11       0.0274
     19 C           2.1617    1.3083    0.1085 C.2     1  UNL11      -0.0796
     20 C           1.7739    1.6792    1.5132 C.3     1  UNL11      -0.0440
     21 H           0.9985    1.0369    1.9230 H       1  UNL11       0.0274
     22 H           2.6414    1.6324    2.1753 H       1  UNL11       0.0274
     23 H           1.4093    2.7083    1.5432 H       1  UNL11       0.0274
     24 C           1.6460    0.2678   -0.5726 C.2     1  UNL11      -0.0850
     25 H           1.9921    0.1161   -1.5920 H       1  UNL11       0.0572
     26 C           0.5841   -0.6812   -0.1016 C.3     1  UNL11      -0.0308
     27 H           0.5675   -0.7546    0.9866 H       1  UNL11       0.0310
     28 H           0.8060   -1.6856   -0.4720 H       1  UNL11       0.0310
@<TRIPOS>BOND
     1    22    20    1
     2    18    15    1
     3    20    23    1
     4    20    21    1
     5    20    19    1
     6    15    16    1
     7    15    19    1
     8    15    17    1
     9    19    24    2
    10    14    11    1
    11    27    26    1
    12    12    11    1
    13    24    26    1
    14    24    25    1
    15    11    13    1
    16    11     9    1
    17    26    28    1
    18    26     1    1
    19     3     1    1
    20     9    10    1
    21     9     4    2
    22     1     4    1
    23     1     2    1
    24     4     5    1
    25     7     5    1
    26     5     6    1
    27     5     8    1
