@<TRIPOS>MOLECULE
/home/jramos/PycharmProjects/GeCos/examples/01-IsoP_trueno_rdkit_mp2/01-IsoP_g16_conformers/01-IsoP_2542_gaussian.xyz
 28 27 0 0 0
SMALL
GASTEIGER

@<TRIPOS>ATOM
      1 C           0.3821   -0.9120    0.7123 C.3     1  UNL1       -0.0286
      2 H          -0.1575   -0.2304    1.3717 H       1  UNL1        0.0313
      3 H          -0.0674   -1.8984    0.8587 H       1  UNL1        0.0313
      4 C           1.8481   -0.9739    1.0601 C.2     1  UNL1       -0.0765
      5 C           2.5261   -2.2873    0.7796 C.3     1  UNL1       -0.0438
      6 H           3.5953   -2.2372    0.9820 H       1  UNL1        0.0274
      7 H           2.0980   -3.0838    1.3921 H       1  UNL1        0.0274
      8 H           2.3922   -2.5821   -0.2636 H       1  UNL1        0.0274
      9 C           2.5418    0.0754    1.5396 C.2     1  UNL1       -0.0881
     10 H           3.6016   -0.0667    1.7324 H       1  UNL1        0.0569
     11 C           2.0109    1.4437    1.8425 C.3     1  UNL1       -0.0466
     12 H           0.9498    1.5345    1.6215 H       1  UNL1        0.0272
     13 H           2.1592    1.6967    2.8940 H       1  UNL1        0.0272
     14 H           2.5378    2.1995    1.2569 H       1  UNL1        0.0272
     15 C          -3.6194    0.3022   -1.4681 C.3     1  UNL1       -0.0440
     16 H          -3.8972    0.9353   -2.3138 H       1  UNL1        0.0274
     17 H          -4.2781    0.5734   -0.6400 H       1  UNL1        0.0274
     18 H          -3.8180   -0.7340   -1.7375 H       1  UNL1        0.0274
     19 C          -2.1771    0.5095   -1.0959 C.2     1  UNL1       -0.0796
     20 C          -1.8229    1.9199   -0.7133 C.3     1  UNL1       -0.0440
     21 H          -2.4454    2.2507    0.1210 H       1  UNL1        0.0274
     22 H          -2.0186    2.6028   -1.5430 H       1  UNL1        0.0274
     23 H          -0.7822    2.0313   -0.4196 H       1  UNL1        0.0274
     24 C          -1.3025   -0.5138   -1.1203 C.2     1  UNL1       -0.0850
     25 H          -1.6863   -1.4936   -1.3932 H       1  UNL1        0.0572
     26 C           0.1490   -0.4686   -0.7448 C.3     1  UNL1       -0.0308
     27 H           0.5648    0.5313   -0.8750 H       1  UNL1        0.0310
     28 H           0.7159   -1.1243   -1.4110 H       1  UNL1        0.0310
@<TRIPOS>BOND
     1    16    15    1
     2    18    15    1
     3    22    20    1
     4    15    19    1
     5    15    17    1
     6    28    26    1
     7    25    24    1
     8    24    19    2
     9    24    26    1
    10    19    20    1
    11    27    26    1
    12    26     1    1
    13    20    23    1
    14    20    21    1
    15     8     5    1
    16     1     3    1
    17     1     4    1
    18     1     2    1
    19     5     6    1
    20     5     4    1
    21     5     7    1
    22     4     9    2
    23    14    11    1
    24     9    10    1
    25     9    11    1
    26    12    11    1
    27    11    13    1
