@<TRIPOS>MOLECULE
/home/jramos/PycharmProjects/GeCos/examples/01-IsoP_trueno_rdkit_mp2/01-IsoP_g16_conformers/01-IsoP_2879_gaussian.xyz
 28 27 0 0 0
SMALL
GASTEIGER

@<TRIPOS>ATOM
      1 C           0.6917    0.1952    0.6646 C.3     1  UNL1       -0.0286
      2 H           0.8153    1.2414    0.9501 H       1  UNL1        0.0313
      3 H           0.0351   -0.2516    1.4163 H       1  UNL1        0.0313
      4 C           2.0125   -0.5322    0.6560 C.2     1  UNL1       -0.0765
      5 C           1.9386   -2.0036    0.9624 C.3     1  UNL1       -0.0438
      6 H           1.2433   -2.5101    0.2891 H       1  UNL1        0.0274
      7 H           1.5746   -2.1706    1.9785 H       1  UNL1        0.0274
      8 H           2.9120   -2.4825    0.8646 H       1  UNL1        0.0274
      9 C           3.1858    0.0522    0.3501 C.2     1  UNL1       -0.0881
     10 H           4.0742   -0.5735    0.3486 H       1  UNL1        0.0569
     11 C           3.4141    1.4920    0.0028 C.3     1  UNL1       -0.0466
     12 H           2.4933    2.0706    0.0072 H       1  UNL1        0.0272
     13 H           3.8578    1.5826   -0.9903 H       1  UNL1        0.0272
     14 H           4.1087    1.9574    0.7046 H       1  UNL1        0.0272
     15 C          -3.8002    1.1156   -0.4892 C.3     1  UNL1       -0.0440
     16 H          -3.5670    2.1727   -0.6071 H       1  UNL1        0.0274
     17 H          -4.3354    0.9856    0.4541 H       1  UNL1        0.0274
     18 H          -4.4888    0.8260   -1.2863 H       1  UNL1        0.0274
     19 C          -2.5579    0.2686   -0.5219 C.2     1  UNL1       -0.0796
     20 C          -2.8002   -1.2076   -0.3704 C.3     1  UNL1       -0.0440
     21 H          -1.8824   -1.7899   -0.3574 H       1  UNL1        0.0274
     22 H          -3.4285   -1.5781   -1.1834 H       1  UNL1        0.0274
     23 H          -3.3373   -1.4066    0.5594 H       1  UNL1        0.0274
     24 C          -1.3439    0.8287   -0.6808 C.2     1  UNL1       -0.0850
     25 H          -1.3002    1.9123   -0.7583 H       1  UNL1        0.0572
     26 C          -0.0180    0.1281   -0.7014 C.3     1  UNL1       -0.0308
     27 H           0.6304    0.5932   -1.4485 H       1  UNL1        0.0310
     28 H          -0.1277   -0.9155   -0.9994 H       1  UNL1        0.0310
@<TRIPOS>BOND
     1    27    26    1
     2    18    15    1
     3    22    20    1
     4    28    26    1
     5    13    11    1
     6    25    24    1
     7    26    24    1
     8    26     1    1
     9    24    19    2
    10    16    15    1
    11    19    15    1
    12    19    20    1
    13    15    17    1
    14    20    21    1
    15    20    23    1
    16    11    12    1
    17    11     9    1
    18    11    14    1
    19     6     5    1
    20    10     9    1
    21     9     4    2
    22     4     1    1
    23     4     5    1
    24     1     2    1
    25     1     3    1
    26     8     5    1
    27     5     7    1
