@<TRIPOS>MOLECULE
/home/jramos/PycharmProjects/GeCos/examples/01-IsoP_trueno_rdkit_mp2/01-IsoP_g16_conformers/01-IsoP_1555_gaussian.xyz
 28 27 0 0 0
SMALL
GASTEIGER

@<TRIPOS>ATOM
      1 C          -0.8177   -0.2660   -0.5877 C.3     1  UNL11      -0.0286
      2 H          -0.7965   -0.1532   -1.6754 H       1  UNL11       0.0313
      3 H          -1.0456    0.7215   -0.1834 H       1  UNL11       0.0313
      4 C          -1.8725   -1.2754   -0.2100 C.2     1  UNL11      -0.0765
      5 C          -2.0935   -2.3844   -1.2023 C.3     1  UNL11      -0.0438
      6 H          -1.1591   -2.9065   -1.4206 H       1  UNL11       0.0274
      7 H          -2.8107   -3.1159   -0.8322 H       1  UNL11       0.0274
      8 H          -2.4649   -1.9890   -2.1502 H       1  UNL11       0.0274
      9 C          -2.5481   -1.2424    0.9538 C.2     1  UNL11      -0.0881
     10 H          -3.2689   -2.0336    1.1409 H       1  UNL11       0.0569
     11 C          -2.4171   -0.2213    2.0429 C.3     1  UNL11      -0.0466
     12 H          -3.3695    0.2801    2.2254 H       1  UNL11       0.0272
     13 H          -2.1227   -0.6949    2.9814 H       1  UNL11       0.0272
     14 H          -1.6760    0.5400    1.8099 H       1  UNL11       0.0272
     15 C           3.2019    2.1991   -0.5127 C.3     1  UNL11      -0.0440
     16 H           3.4452    1.8835   -1.5261 H       1  UNL11       0.0274
     17 H           4.1209    2.1933    0.0777 H       1  UNL11       0.0274
     18 H           2.8560    3.2346   -0.5499 H       1  UNL11       0.0274
     19 C           2.1617    1.3083    0.1085 C.2     1  UNL11      -0.0796
     20 C           1.7739    1.6792    1.5132 C.3     1  UNL11      -0.0440
     21 H           1.4092    2.7082    1.5431 H       1  UNL11       0.0274
     22 H           0.9984    1.0369    1.9230 H       1  UNL11       0.0274
     23 H           2.6414    1.6325    2.1753 H       1  UNL11       0.0274
     24 C           1.6460    0.2678   -0.5726 C.2     1  UNL11      -0.0850
     25 H           1.9920    0.1161   -1.5920 H       1  UNL11       0.0572
     26 C           0.5842   -0.6812   -0.1015 C.3     1  UNL11      -0.0308
     27 H           0.8059   -1.6856   -0.4720 H       1  UNL11       0.0310
     28 H           0.5675   -0.7546    0.9866 H       1  UNL11       0.0310
@<TRIPOS>BOND
     1    13    11    1
     2    11    12    1
     3    11    14    1
     4    11     9    1
     5    10     9    1
     6    23    20    1
     7    22    20    1
     8     9     4    2
     9    28    26    1
    10    20    21    1
    11    20    19    1
    12    26    27    1
    13    26     1    1
    14    26    24    1
    15     4     5    1
    16     4     1    1
    17     7     5    1
    18    19    24    2
    19    19    15    1
    20     6     5    1
    21     5     8    1
    22     3     1    1
    23    17    15    1
    24     1     2    1
    25    24    25    1
    26    15    18    1
    27    15    16    1
