@<TRIPOS>MOLECULE
/home/jramos/PycharmProjects/GeCos/examples/01-IsoP_trueno_rdkit_mp2/01-IsoP_g16_conformers/01-IsoP_536_gaussian.xyz
 28 27 0 0 0
SMALL
GASTEIGER

@<TRIPOS>ATOM
      1 C          -0.9463   -0.7601    0.1479 C.3     1  UNL1       -0.0286
      2 H          -0.5915   -0.8677   -0.8783 H       1  UNL1        0.0313
      3 H          -1.0292   -1.7739    0.5502 H       1  UNL1        0.0313
      4 C          -2.2961   -0.0896    0.1994 C.2     1  UNL1       -0.0765
      5 C          -3.1801   -0.4992    1.3458 C.3     1  UNL1       -0.0438
      6 H          -2.6721   -0.3568    2.3022 H       1  UNL1        0.0274
      7 H          -3.4381   -1.5583    1.2779 H       1  UNL1        0.0274
      8 H          -4.1040    0.0775    1.3648 H       1  UNL1        0.0274
      9 C          -2.6893    0.8545   -0.6758 C.2     1  UNL1       -0.0881
     10 H          -3.6724    1.2950   -0.5342 H       1  UNL1        0.0569
     11 C          -1.9120    1.3793   -1.8446 C.3     1  UNL1       -0.0466
     12 H          -1.7602    2.4565   -1.7537 H       1  UNL1        0.0272
     13 H          -2.4509    1.2126   -2.7792 H       1  UNL1        0.0272
     14 H          -0.9331    0.9137   -1.9337 H       1  UNL1        0.0272
     15 C           2.5417    0.5203   -0.9047 C.3     1  UNL1       -0.0440
     16 H           3.3562    1.2245   -0.7202 H       1  UNL1        0.0274
     17 H           1.6182    1.0860   -0.9987 H       1  UNL1        0.0274
     18 H           2.7461    0.0469   -1.8674 H       1  UNL1        0.0274
     19 C           2.4860   -0.5182    0.1813 C.2     1  UNL1       -0.0796
     20 C           3.7291   -1.3535    0.3171 C.3     1  UNL1       -0.0440
     21 H           3.9430   -1.8873   -0.6116 H       1  UNL1        0.0274
     22 H           3.6338   -2.0853    1.1178 H       1  UNL1        0.0274
     23 H           4.5977   -0.7257    0.5285 H       1  UNL1        0.0274
     24 C           1.4288   -0.7145    0.9916 C.2     1  UNL1       -0.0850
     25 H           1.5021   -1.5136    1.7250 H       1  UNL1        0.0572
     26 C           0.1166    0.0112    0.9537 C.3     1  UNL1       -0.0308
     27 H          -0.2468    0.1556    1.9747 H       1  UNL1        0.0310
     28 H           0.2231    1.0081    0.5243 H       1  UNL1        0.0310
@<TRIPOS>BOND
     1    13    11    1
     2    14    11    1
     3    18    15    1
     4    11    12    1
     5    11     9    1
     6    17    15    1
     7    15    16    1
     8    15    19    1
     9     2     1    1
    10     9    10    1
    11     9     4    2
    12    21    20    1
    13     1     4    1
    14     1     3    1
    15     1    26    1
    16    19    20    1
    17    19    24    2
    18     4     5    1
    19    20    23    1
    20    20    22    1
    21    28    26    1
    22    26    24    1
    23    26    27    1
    24    24    25    1
    25     7     5    1
    26     5     8    1
    27     5     6    1
