@<TRIPOS>MOLECULE
/home/jramos/PycharmProjects/GeCos/examples/01-IsoP_trueno_rdkit_mp2/01-IsoP_g16_conformers/01-IsoP_2536_gaussian.xyz
 28 27 0 0 0
SMALL
GASTEIGER

@<TRIPOS>ATOM
      1 C           0.7767   -0.3299   -0.3903 C.3     1  UNL1       -0.0286
      2 H           0.1851   -0.2145   -1.3027 H       1  UNL1        0.0313
      3 H           1.0004   -1.3946   -0.3039 H       1  UNL1        0.0313
      4 C           2.0376    0.4895   -0.5027 C.2     1  UNL1       -0.0765
      5 C           1.9050    1.7706   -1.2808 C.3     1  UNL1       -0.0438
      6 H           2.8272    2.3498   -1.2590 H       1  UNL1        0.0274
      7 H           1.1043    2.3941   -0.8766 H       1  UNL1        0.0274
      8 H           1.6524    1.5668   -2.3237 H       1  UNL1        0.0274
      9 C           3.2023    0.1532    0.0821 C.2     1  UNL1       -0.0881
     10 H           4.0420    0.8314   -0.0424 H       1  UNL1        0.0569
     11 C           3.4810   -1.0697    0.9021 C.3     1  UNL1       -0.0466
     12 H           2.6065   -1.7078    1.0056 H       1  UNL1        0.0272
     13 H           4.2817   -1.6637    0.4574 H       1  UNL1        0.0272
     14 H           3.8103   -0.7934    1.9055 H       1  UNL1        0.0272
     15 C          -3.7503   -1.2743    0.5942 C.3     1  UNL1       -0.0440
     16 H          -4.5448   -0.8149    1.1867 H       1  UNL1        0.0274
     17 H          -4.1787   -1.5067   -0.3834 H       1  UNL1        0.0274
     18 H          -3.4646   -2.2095    1.0732 H       1  UNL1        0.0274
     19 C          -2.5779   -0.3424    0.4581 C.2     1  UNL1       -0.0796
     20 C          -2.8957    0.9761   -0.1912 C.3     1  UNL1       -0.0440
     21 H          -3.3320    0.8129   -1.1789 H       1  UNL1        0.0274
     22 H          -2.0224    1.6117   -0.3124 H       1  UNL1        0.0274
     23 H          -3.6376    1.5228    0.3952 H       1  UNL1        0.0274
     24 C          -1.3572   -0.6987    0.9004 C.2     1  UNL1       -0.0850
     25 H          -1.2528   -1.6906    1.3332 H       1  UNL1        0.0572
     26 C          -0.0909    0.0997    0.8084 C.3     1  UNL1       -0.0308
     27 H          -0.3020    1.1674    0.7359 H       1  UNL1        0.0310
     28 H           0.4942   -0.0352    1.7218 H       1  UNL1        0.0310
@<TRIPOS>BOND
     1     8     5    1
     2     2     1    1
     3     5     6    1
     4     5     7    1
     5     5     4    1
     6    21    20    1
     7     4     1    1
     8     4     9    2
     9     1     3    1
    10     1    26    1
    11    17    15    1
    12    22    20    1
    13    20    23    1
    14    20    19    1
    15    10     9    1
    16     9    11    1
    17    13    11    1
    18    19    15    1
    19    19    24    2
    20    15    18    1
    21    15    16    1
    22    27    26    1
    23    26    24    1
    24    26    28    1
    25    24    25    1
    26    11    12    1
    27    11    14    1
