@<TRIPOS>MOLECULE
/home/jramos/PycharmProjects/GeCos/examples/01-IsoP_trueno_rdkit_mp2/01-IsoP_g16_conformers/01-IsoP_3577_gaussian.xyz
 28 27 0 0 0
SMALL
GASTEIGER

@<TRIPOS>ATOM
      1 C           0.7940   -0.1579    0.9881 C.3     1  UNL1       -0.0286
      2 H           0.6541   -0.4233    2.0400 H       1  UNL1        0.0313
      3 H           0.6878   -1.0853    0.4231 H       1  UNL1        0.0313
      4 C           2.1620    0.4491    0.8032 C.2     1  UNL1       -0.0765
      5 C           2.6863    1.2350    1.9741 C.3     1  UNL1       -0.0438
      6 H           1.9830    2.0178    2.2666 H       1  UNL1        0.0274
      7 H           3.6408    1.7069    1.7445 H       1  UNL1        0.0274
      8 H           2.8232    0.5898    2.8447 H       1  UNL1        0.0274
      9 C           2.8665    0.3564   -0.3401 C.2     1  UNL1       -0.0881
     10 H           3.8318    0.8535   -0.3791 H       1  UNL1        0.0569
     11 C           2.4643   -0.3659   -1.5901 C.3     1  UNL1       -0.0466
     12 H           1.4872   -0.8353   -1.5010 H       1  UNL1        0.0272
     13 H           3.1892   -1.1418   -1.8437 H       1  UNL1        0.0272
     14 H           2.4262    0.3219   -2.4370 H       1  UNL1        0.0272
     15 C          -2.1546   -0.6860   -1.4491 C.3     1  UNL1       -0.0440
     16 H          -2.8984   -0.2273   -2.1046 H       1  UNL1        0.0274
     17 H          -1.1744   -0.3109   -1.7324 H       1  UNL1        0.0274
     18 H          -2.1756   -1.7591   -1.6508 H       1  UNL1        0.0274
     19 C          -2.4891   -0.4238   -0.0068 C.2     1  UNL1       -0.0796
     20 C          -3.8197   -0.9648    0.4386 C.3     1  UNL1       -0.0440
     21 H          -4.0101   -0.7446    1.4879 H       1  UNL1        0.0274
     22 H          -3.8654   -2.0476    0.3017 H       1  UNL1        0.0274
     23 H          -4.6313   -0.5364   -0.1539 H       1  UNL1        0.0274
     24 C          -1.6911    0.2414    0.8496 C.2     1  UNL1       -0.0850
     25 H          -2.0357    0.3469    1.8753 H       1  UNL1        0.0572
     26 C          -0.3310    0.8048    0.5624 C.3     1  UNL1       -0.0308
     27 H          -0.2093    1.0357   -0.4966 H       1  UNL1        0.0310
     28 H          -0.2108    1.7508    1.0971 H       1  UNL1        0.0310
@<TRIPOS>BOND
     1    14    11    1
     2    16    15    1
     3    13    11    1
     4    17    15    1
     5    18    15    1
     6    11    12    1
     7    11     9    1
     8    15    19    1
     9    27    26    1
    10    10     9    1
    11     9     4    2
    12    23    20    1
    13    19    20    1
    14    19    24    2
    15    22    20    1
    16     3     1    1
    17    20    21    1
    18    26    24    1
    19    26     1    1
    20    26    28    1
    21     4     1    1
    22     4     5    1
    23    24    25    1
    24     1     2    1
    25     7     5    1
    26     5     6    1
    27     5     8    1
