@<TRIPOS>MOLECULE
/home/jramos/PycharmProjects/GeCos/examples/01-IsoP_trueno_rdkit_mp2/01-IsoP_g16_conformers/01-IsoP_1572_gaussian.xyz
 28 27 0 0 0
SMALL
GASTEIGER

@<TRIPOS>ATOM
      1 C          -0.9457    0.0382   -0.0438 C.3     1  UNL11      -0.0286
      2 H          -1.4470    0.8553    0.4778 H       1  UNL11       0.0313
      3 H          -0.7311    0.4045   -1.0516 H       1  UNL11       0.0313
      4 C          -1.8276   -1.1818   -0.1305 C.2     1  UNL11      -0.0765
      5 C          -1.5937   -2.0608   -1.3293 C.3     1  UNL11      -0.0438
      6 H          -2.2065   -2.9605   -1.2920 H       1  UNL11       0.0274
      7 H          -0.5470   -2.3670   -1.3931 H       1  UNL11       0.0274
      8 H          -1.8247   -1.5264   -2.2534 H       1  UNL11       0.0274
      9 C          -2.7340   -1.5171    0.8063 C.2     1  UNL11      -0.0881
     10 H          -3.2977   -2.4338    0.6557 H       1  UNL11       0.0569
     11 C          -3.0615   -0.7605    2.0577 C.3     1  UNL11      -0.0466
     12 H          -2.4625    0.1407    2.1661 H       1  UNL11       0.0272
     13 H          -4.1138   -0.4706    2.0745 H       1  UNL11       0.0272
     14 H          -2.8890   -1.3812    2.9388 H       1  UNL11       0.0272
     15 C           3.0704    2.5313    0.0594 C.3     1  UNL11      -0.0440
     16 H           3.0079    3.1489   -0.8394 H       1  UNL11       0.0274
     17 H           2.7017    3.1149    0.9015 H       1  UNL11       0.0274
     18 H           4.1294    2.3211    0.2260 H       1  UNL11       0.0274
     19 C           2.2926    1.2556   -0.1116 C.2     1  UNL11      -0.0796
     20 C           2.7478    0.3909   -1.2543 C.3     1  UNL11      -0.0440
     21 H           2.7105    0.9538   -2.1895 H       1  UNL11       0.0274
     22 H           3.7864    0.0837   -1.1121 H       1  UNL11       0.0274
     23 H           2.1425   -0.5034   -1.3782 H       1  UNL11       0.0274
     24 C           1.2781    0.9484    0.7186 C.2     1  UNL11      -0.0850
     25 H           1.0326    1.6689    1.4949 H       1  UNL11       0.0572
     26 C           0.3924   -0.2604    0.6592 C.3     1  UNL11      -0.0308
     27 H           0.1777   -0.6071    1.6734 H       1  UNL11       0.0310
     28 H           0.8887   -1.0887    0.1520 H       1  UNL11       0.0310
@<TRIPOS>BOND
     1    13    11    1
     2    12    11    1
     3    11    14    1
     4    11     9    1
     5     2     1    1
     6    25    24    1
     7    17    15    1
     8     9    10    1
     9     9     4    2
    10     1     3    1
    11     1     4    1
    12     1    26    1
    13    16    15    1
    14    24    26    1
    15    24    19    2
    16     4     5    1
    17    15    19    1
    18    15    18    1
    19    27    26    1
    20    26    28    1
    21    19    20    1
    22     8     5    1
    23     5     6    1
    24     5     7    1
    25    21    20    1
    26    20    23    1
    27    20    22    1
