@<TRIPOS>MOLECULE
/home/jramos/PycharmProjects/GeCos/examples/01-IsoP_trueno_rdkit_mp2/01-IsoP_g16_conformers/01-IsoP_845_gaussian.xyz
 28 27 0 0 0
SMALL
GASTEIGER

@<TRIPOS>ATOM
      1 C          -0.9417   -0.0201   -0.0816 C.3     1  UNL11      -0.0286
      2 H          -0.7114    0.4001   -1.0645 H       1  UNL11       0.0313
      3 H          -1.5238    0.7376    0.4458 H       1  UNL11       0.0313
      4 C          -1.7267   -1.2961   -0.2527 C.2     1  UNL11      -0.0765
      5 C          -1.3771   -2.1082   -1.4704 C.3     1  UNL11      -0.0438
      6 H          -0.3089   -2.3353   -1.4972 H       1  UNL11       0.0274
      7 H          -1.9231   -3.0504   -1.4938 H       1  UNL11       0.0274
      8 H          -1.6068   -1.5558   -2.3843 H       1  UNL11       0.0274
      9 C          -2.6456   -1.7325    0.6289 C.2     1  UNL11      -0.0881
     10 H          -3.1331   -2.6807    0.4194 H       1  UNL11       0.0569
     11 C          -3.0815   -1.0513    1.8904 C.3     1  UNL11      -0.0466
     12 H          -4.1521   -0.8388    1.8692 H       1  UNL11       0.0272
     13 H          -2.5559   -0.1143    2.0586 H       1  UNL11       0.0272
     14 H          -2.9021   -1.6922    2.7555 H       1  UNL11       0.0272
     15 C           2.7646    0.6451   -1.1077 C.3     1  UNL11      -0.0440
     16 H           2.7263    1.2402   -2.0226 H       1  UNL11       0.0274
     17 H           3.8158    0.4081   -0.9292 H       1  UNL11       0.0274
     18 H           2.2328   -0.2850   -1.2914 H       1  UNL11       0.0274
     19 C           2.1979    1.4291    0.0434 C.2     1  UNL11      -0.0796
     20 C           2.8716    2.7498    0.2960 C.3     1  UNL11      -0.0440
     21 H           2.8026    3.3962   -0.5819 H       1  UNL11       0.0274
     22 H           3.9350    2.6100    0.5032 H       1  UNL11       0.0274
     23 H           2.4249    3.2717    1.1409 H       1  UNL11       0.0274
     24 C           1.1740    1.0171    0.8145 C.2     1  UNL11      -0.0850
     25 H           0.8428    1.6870    1.6043 H       1  UNL11       0.0572
     26 C           0.3832   -0.2491    0.6709 C.3     1  UNL11      -0.0308
     27 H           0.9607   -1.0188    0.1574 H       1  UNL11       0.0310
     28 H           0.1510   -0.6501    1.6610 H       1  UNL11       0.0310
@<TRIPOS>BOND
     1     7     5    1
     2     6     5    1
     3     5     8    1
     4     5     4    1
     5    18    15    1
     6    17    15    1
     7    16    15    1
     8    27    26    1
     9    15    19    1
    10    10     9    1
    11     4     9    2
    12     4     1    1
    13     9    11    1
    14     2     1    1
    15    26     1    1
    16    26    28    1
    17    26    24    1
    18     1     3    1
    19    19    24    2
    20    19    20    1
    21    24    25    1
    22    22    20    1
    23    14    11    1
    24    11    12    1
    25    11    13    1
    26    20    21    1
    27    20    23    1
