@<TRIPOS>MOLECULE
/home/jramos/PycharmProjects/GeCos/examples/01-IsoP_trueno_rdkit_mp2/01-IsoP_g16_conformers/01-IsoP_094_gaussian.xyz
 28 27 0 0 0
SMALL
GASTEIGER

@<TRIPOS>ATOM
      1 C          -0.0076    1.1159    0.2716 C.3     1  UNL1       -0.0286
      2 H          -0.7065    0.5455    0.8854 H       1  UNL1        0.0313
      3 H          -0.5696    1.9694   -0.1183 H       1  UNL1        0.0313
      4 C           1.1612    1.6154    1.0832 C.2     1  UNL1       -0.0765
      5 C           1.7641    2.9138    0.6204 C.3     1  UNL1       -0.0438
      6 H           1.0429    3.7294    0.7069 H       1  UNL1        0.0274
      7 H           2.6473    3.1749    1.2020 H       1  UNL1        0.0274
      8 H           2.0552    2.8576   -0.4309 H       1  UNL1        0.0274
      9 C           1.6853    0.9398    2.1228 C.2     1  UNL1       -0.0881
     10 H           2.5456    1.3745    2.6243 H       1  UNL1        0.0569
     11 C           1.2109   -0.3689    2.6780 C.3     1  UNL1       -0.0466
     12 H           0.9252   -0.2680    3.7268 H       1  UNL1        0.0272
     13 H           2.0059   -1.1158    2.6361 H       1  UNL1        0.0272
     14 H           0.3564   -0.7643    2.1336 H       1  UNL1        0.0272
     15 C          -1.1206   -2.4388   -0.7479 C.3     1  UNL1       -0.0440
     16 H          -0.8809   -3.3568   -1.2892 H       1  UNL1        0.0274
     17 H          -2.0019   -2.6524   -0.1392 H       1  UNL1        0.0274
     18 H          -0.2956   -2.2151   -0.0761 H       1  UNL1        0.0274
     19 C          -1.4144   -1.3206   -1.7093 C.2     1  UNL1       -0.0796
     20 C          -2.5773   -1.5714   -2.6291 C.3     1  UNL1       -0.0440
     21 H          -3.4945   -1.7400   -2.0602 H       1  UNL1        0.0274
     22 H          -2.4098   -2.4668   -3.2320 H       1  UNL1        0.0274
     23 H          -2.7426   -0.7322   -3.3031 H       1  UNL1        0.0274
     24 C          -0.7143   -0.1725   -1.7766 C.2     1  UNL1       -0.0850
     25 H          -1.0395    0.5701   -2.5008 H       1  UNL1        0.0572
     26 C           0.4400    0.2320   -0.9084 C.3     1  UNL1       -0.0308
     27 H           0.9662   -0.6372   -0.5121 H       1  UNL1        0.0310
     28 H           1.1690    0.7828   -1.5087 H       1  UNL1        0.0310
@<TRIPOS>BOND
     1    23    20    1
     2    22    20    1
     3    20    21    1
     4    20    19    1
     5    25    24    1
     6    24    19    2
     7    24    26    1
     8    19    15    1
     9    28    26    1
    10    16    15    1
    11    26    27    1
    12    26     1    1
    13    15    17    1
    14    15    18    1
    15     8     5    1
    16     3     1    1
    17     1     2    1
    18     1     4    1
    19     5     6    1
    20     5     4    1
    21     5     7    1
    22     4     9    2
    23     9    10    1
    24     9    11    1
    25    14    11    1
    26    13    11    1
    27    11    12    1
