@<TRIPOS>MOLECULE
/home/jramos/PycharmProjects/GeCos/examples/01-IsoP_trueno_rdkit_mp2/01-IsoP_g16_conformers/01-IsoP_3975_gaussian.xyz
 28 27 0 0 0
SMALL
GASTEIGER

@<TRIPOS>ATOM
      1 C          -0.9417   -0.0201   -0.0816 C.3     1  UNL11      -0.0286
      2 H          -0.7114    0.4001   -1.0646 H       1  UNL11       0.0313
      3 H          -1.5239    0.7376    0.4457 H       1  UNL11       0.0313
      4 C          -1.7267   -1.2962   -0.2527 C.2     1  UNL11      -0.0765
      5 C          -1.3771   -2.1081   -1.4704 C.3     1  UNL11      -0.0438
      6 H          -0.3089   -2.3353   -1.4971 H       1  UNL11       0.0274
      7 H          -1.9230   -3.0505   -1.4937 H       1  UNL11       0.0274
      8 H          -1.6068   -1.5558   -2.3842 H       1  UNL11       0.0274
      9 C          -2.6456   -1.7325    0.6289 C.2     1  UNL11      -0.0881
     10 H          -3.1330   -2.6807    0.4195 H       1  UNL11       0.0569
     11 C          -3.0815   -1.0513    1.8903 C.3     1  UNL11      -0.0466
     12 H          -4.1521   -0.8387    1.8691 H       1  UNL11       0.0272
     13 H          -2.9020   -1.6921    2.7555 H       1  UNL11       0.0272
     14 H          -2.5559   -0.1142    2.0586 H       1  UNL11       0.0272
     15 C           2.7647    0.6451   -1.1077 C.3     1  UNL11      -0.0440
     16 H           2.7264    1.2401   -2.0226 H       1  UNL11       0.0274
     17 H           2.2328   -0.2850   -1.2914 H       1  UNL11       0.0274
     18 H           3.8159    0.4081   -0.9291 H       1  UNL11       0.0274
     19 C           2.1980    1.4291    0.0434 C.2     1  UNL11      -0.0796
     20 C           2.8715    2.7498    0.2959 C.3     1  UNL11      -0.0440
     21 H           3.9349    2.6101    0.5031 H       1  UNL11       0.0274
     22 H           2.4249    3.2717    1.1407 H       1  UNL11       0.0274
     23 H           2.8026    3.3962   -0.5819 H       1  UNL11       0.0274
     24 C           1.1740    1.0171    0.8145 C.2     1  UNL11      -0.0850
     25 H           0.8427    1.6870    1.6042 H       1  UNL11       0.0572
     26 C           0.3832   -0.2491    0.6710 C.3     1  UNL11      -0.0308
     27 H           0.9607   -1.0188    0.1575 H       1  UNL11       0.0310
     28 H           0.1510   -0.6500    1.6609 H       1  UNL11       0.0310
@<TRIPOS>BOND
     1    13    11    1
     2    28    26    1
     3    25    24    1
     4    21    20    1
     5    22    20    1
     6    14    11    1
     7    24    26    1
     8    24    19    2
     9    11    12    1
    10    11     9    1
    11    26    27    1
    12    26     1    1
    13    20    19    1
    14    20    23    1
    15    18    15    1
    16    19    15    1
    17     9    10    1
    18     9     4    2
    19    15    17    1
    20    15    16    1
    21     3     1    1
    22     1     4    1
    23     1     2    1
    24     4     5    1
    25     6     5    1
    26     7     5    1
    27     5     8    1
