@<TRIPOS>MOLECULE
/home/jramos/PycharmProjects/GeCos/examples/01-IsoP_trueno_rdkit_mp2/01-IsoP_g16_conformers/01-IsoP_801_gaussian.xyz
 28 27 0 0 0
SMALL
GASTEIGER

@<TRIPOS>ATOM
      1 C          -0.7287   -0.1588    0.5165 C.3     1  UNL1       -0.0286
      2 H          -0.0781   -0.1192    1.3946 H       1  UNL1        0.0313
      3 H          -0.9249   -1.2159    0.3291 H       1  UNL1        0.0313
      4 C          -2.0032    0.5949    0.8017 C.2     1  UNL1       -0.0765
      5 C          -1.8558    1.7894    1.7049 C.3     1  UNL1       -0.0438
      6 H          -2.7947    2.3318    1.8082 H       1  UNL1        0.0274
      7 H          -1.1052    2.4829    1.3189 H       1  UNL1        0.0274
      8 H          -1.5242    1.4849    2.7000 H       1  UNL1        0.0274
      9 C          -3.1953    0.2787    0.2625 C.2     1  UNL1       -0.0881
     10 H          -4.0447    0.9071    0.5163 H       1  UNL1        0.0569
     11 C          -3.4931   -0.8590   -0.6661 C.3     1  UNL1       -0.0466
     12 H          -3.9006   -0.4897   -1.6089 H       1  UNL1        0.0272
     13 H          -2.6088   -1.4483   -0.8968 H       1  UNL1        0.0272
     14 H          -4.2418   -1.5275   -0.2367 H       1  UNL1        0.0272
     15 C           3.7448   -0.8180   -0.8651 C.3     1  UNL1       -0.0440
     16 H           4.4810   -0.2676   -1.4553 H       1  UNL1        0.0274
     17 H           4.2479   -1.1371    0.0504 H       1  UNL1        0.0274
     18 H           3.4551   -1.7067   -1.4235 H       1  UNL1        0.0274
     19 C           2.5566    0.0483   -0.5498 C.2     1  UNL1       -0.0796
     20 C           2.8785    1.3009    0.2172 C.3     1  UNL1       -0.0440
     21 H           3.5600    1.9353   -0.3539 H       1  UNL1        0.0274
     22 H           1.9967    1.8859    0.4653 H       1  UNL1        0.0274
     23 H           3.3882    1.0497    1.1499 H       1  UNL1        0.0274
     24 C           1.3194   -0.3051   -0.9461 C.2     1  UNL1       -0.0850
     25 H           1.2155   -1.2482   -1.4770 H       1  UNL1        0.0572
     26 C           0.0387    0.4297   -0.6831 C.3     1  UNL1       -0.0308
     27 H          -0.6049    0.3711   -1.5647 H       1  UNL1        0.0310
     28 H           0.2213    1.4908   -0.5083 H       1  UNL1        0.0310
@<TRIPOS>BOND
     1    12    11    1
     2    27    26    1
     3    25    24    1
     4    16    15    1
     5    18    15    1
     6    24    26    1
     7    24    19    2
     8    13    11    1
     9    15    19    1
    10    15    17    1
    11    26    28    1
    12    26     1    1
    13    11    14    1
    14    11     9    1
    15    19    20    1
    16    21    20    1
    17    20    22    1
    18    20    23    1
    19     9    10    1
    20     9     4    2
    21     3     1    1
    22     1     4    1
    23     1     2    1
    24     4     5    1
    25     7     5    1
    26     5     6    1
    27     5     8    1
