@<TRIPOS>MOLECULE
/home/jramos/PycharmProjects/GeCos/examples/01-IsoP_trueno_rdkit_mp2/01-IsoP_g16_conformers/01-IsoP_2165_gaussian.xyz
 28 27 0 0 0
SMALL
GASTEIGER

@<TRIPOS>ATOM
      1 C          -0.8889   -0.1320   -0.3592 C.3     1  UNL1       -0.0286
      2 H          -0.4219   -0.0238   -1.3420 H       1  UNL1        0.0313
      3 H          -1.2960   -1.1440   -0.3241 H       1  UNL1        0.0313
      4 C          -1.9743    0.9031   -0.2027 C.2     1  UNL1       -0.0765
      5 C          -1.7129    2.2178   -0.8865 C.3     1  UNL1       -0.0438
      6 H          -0.7593    2.6438   -0.5663 H       1  UNL1        0.0274
      7 H          -2.4958    2.9439   -0.6713 H       1  UNL1        0.0274
      8 H          -1.6543    2.0872   -1.9693 H       1  UNL1        0.0274
      9 C          -3.0867    0.7148    0.5315 C.2     1  UNL1       -0.0881
     10 H          -3.7914    1.5392    0.5974 H       1  UNL1        0.0569
     11 C          -3.4730   -0.5219    1.2844 C.3     1  UNL1       -0.0466
     12 H          -4.4267   -0.9146    0.9268 H       1  UNL1        0.0272
     13 H          -3.5980   -0.3026    2.3463 H       1  UNL1        0.0272
     14 H          -2.7298   -1.3108    1.1954 H       1  UNL1        0.0272
     15 C           2.9550    0.4806   -0.6442 C.3     1  UNL1       -0.0440
     16 H           3.2076    0.3516   -1.6988 H       1  UNL1        0.0274
     17 H           2.2099    1.2689   -0.5730 H       1  UNL1        0.0274
     18 H           3.8627    0.8220   -0.1417 H       1  UNL1        0.0274
     19 C           2.4882   -0.8241   -0.0607 C.2     1  UNL1       -0.0796
     20 C           3.4697   -1.9563   -0.1887 C.3     1  UNL1       -0.0440
     21 H           3.0827   -2.8733    0.2530 H       1  UNL1        0.0274
     22 H           3.7029   -2.1528   -1.2376 H       1  UNL1        0.0274
     23 H           4.4129   -1.7103    0.3044 H       1  UNL1        0.0274
     24 C           1.2975   -1.0067    0.5406 C.2     1  UNL1       -0.0850
     25 H           1.0693   -2.0060    0.9033 H       1  UNL1        0.0572
     26 C           0.2057    0.0065    0.7163 C.3     1  UNL1       -0.0308
     27 H          -0.2586   -0.1220    1.6975 H       1  UNL1        0.0310
     28 H           0.6032    1.0221    0.6971 H       1  UNL1        0.0310
@<TRIPOS>BOND
     1     8     5    1
     2    16    15    1
     3     2     1    1
     4    22    20    1
     5     5     7    1
     6     5     6    1
     7     5     4    1
     8    15    17    1
     9    15    18    1
    10    15    19    1
    11     1     3    1
    12     1     4    1
    13     1    26    1
    14     4     9    2
    15    20    19    1
    16    20    21    1
    17    20    23    1
    18    19    24    2
    19     9    10    1
    20     9    11    1
    21    24    26    1
    22    24    25    1
    23    28    26    1
    24    26    27    1
    25    12    11    1
    26    14    11    1
    27    11    13    1
