@<TRIPOS>MOLECULE
/home/jramos/PycharmProjects/GeCos/examples/01-IsoP_trueno_rdkit_mp2/01-IsoP_g16_conformers/01-IsoP_2201_gaussian.xyz
 28 27 0 0 0
SMALL
GASTEIGER

@<TRIPOS>ATOM
      1 C          -0.8101   -0.8195    0.0868 C.3     1  UNL1       -0.0286
      2 H          -0.5325   -0.3527    1.0331 H       1  UNL1        0.0313
      3 H          -0.6947   -1.8974    0.2324 H       1  UNL1        0.0313
      4 C          -2.2403   -0.5150   -0.2819 C.2     1  UNL1       -0.0765
      5 C          -2.9453   -1.5791   -1.0782 C.3     1  UNL1       -0.0438
      6 H          -3.9445   -1.2619   -1.3741 H       1  UNL1        0.0274
      7 H          -2.3861   -1.8256   -1.9836 H       1  UNL1        0.0274
      8 H          -3.0352   -2.5012   -0.4999 H       1  UNL1        0.0274
      9 C          -2.8536    0.6445    0.0204 C.2     1  UNL1       -0.0881
     10 H          -3.8786    0.7751   -0.3155 H       1  UNL1        0.0569
     11 C          -2.2740    1.7989    0.7802 C.3     1  UNL1       -0.0466
     12 H          -1.2445    1.6206    1.0826 H       1  UNL1        0.0272
     13 H          -2.2894    2.7061    0.1732 H       1  UNL1        0.0272
     14 H          -2.8578    2.0083    1.6786 H       1  UNL1        0.0272
     15 C           3.8969   -0.5597    0.2143 C.3     1  UNL1       -0.0440
     16 H           4.6687    0.0345   -0.2801 H       1  UNL1        0.0274
     17 H           3.9894   -1.5901   -0.1254 H       1  UNL1        0.0274
     18 H           4.1126   -0.5309    1.2848 H       1  UNL1        0.0274
     19 C           2.5290   -0.0042   -0.0720 C.2     1  UNL1       -0.0796
     20 C           2.3240    1.4194    0.3665 C.3     1  UNL1       -0.0440
     21 H           1.3172    1.7817    0.1746 H       1  UNL1        0.0274
     22 H           2.5177    1.5146    1.4371 H       1  UNL1        0.0274
     23 H           3.0280    2.0822   -0.1417 H       1  UNL1        0.0274
     24 C           1.5907   -0.7551   -0.6791 C.2     1  UNL1       -0.0850
     25 H           1.8539   -1.7801   -0.9278 H       1  UNL1        0.0572
     26 C           0.1810   -0.3534   -0.9969 C.3     1  UNL1       -0.0308
     27 H          -0.1115   -0.7876   -1.9567 H       1  UNL1        0.0310
     28 H           0.0891    0.7274   -1.1108 H       1  UNL1        0.0310
@<TRIPOS>BOND
     1     7     5    1
     2    27    26    1
     3     6     5    1
     4    28    26    1
     5     5     8    1
     6     5     4    1
     7    26    24    1
     8    26     1    1
     9    25    24    1
    10    24    19    2
    11    10     9    1
    12     4     9    2
    13     4     1    1
    14    16    15    1
    15    23    20    1
    16    17    15    1
    17    19    15    1
    18    19    20    1
    19     9    11    1
    20     1     3    1
    21     1     2    1
    22    13    11    1
    23    21    20    1
    24    15    18    1
    25    20    22    1
    26    11    12    1
    27    11    14    1
