@<TRIPOS>MOLECULE
/home/jramos/PycharmProjects/GeCos/examples/01-IsoP_trueno_rdkit_mp2/01-IsoP_g16_conformers/01-IsoP_3470_gaussian.xyz
 28 27 0 0 0
SMALL
GASTEIGER

@<TRIPOS>ATOM
      1 C          -0.7352    0.6986    0.7966 C.3     1  UNL1       -0.0286
      2 H          -0.5407    1.6397    1.3190 H       1  UNL1        0.0313
      3 H          -0.3959   -0.0957    1.4633 H       1  UNL1        0.0313
      4 C          -2.2103    0.5840    0.5050 C.2     1  UNL1       -0.0765
      5 C          -2.9231    1.8836    0.2471 C.3     1  UNL1       -0.0438
      6 H          -3.9637    1.7212   -0.0307 H       1  UNL1        0.0274
      7 H          -2.9001    2.5214    1.1334 H       1  UNL1        0.0274
      8 H          -2.4405    2.4417   -0.5583 H       1  UNL1        0.0274
      9 C          -2.8608   -0.5915    0.4211 C.2     1  UNL1       -0.0881
     10 H          -3.9196   -0.5655    0.1787 H       1  UNL1        0.0569
     11 C          -2.2815   -1.9584    0.6259 C.3     1  UNL1       -0.0466
     12 H          -1.2186   -1.9277    0.8546 H       1  UNL1        0.0272
     13 H          -2.7870   -2.4791    1.4414 H       1  UNL1        0.0272
     14 H          -2.4110   -2.5695   -0.2694 H       1  UNL1        0.0272
     15 C           2.2691   -1.5428   -0.1330 C.3     1  UNL1       -0.0440
     16 H           2.5597   -2.0382    0.7959 H       1  UNL1        0.0274
     17 H           2.8788   -1.9792   -0.9274 H       1  UNL1        0.0274
     18 H           1.2282   -1.7860   -0.3310 H       1  UNL1        0.0274
     19 C           2.5169   -0.0633   -0.0301 C.2     1  UNL1       -0.0796
     20 C           3.9374    0.3159    0.2861 C.3     1  UNL1       -0.0440
     21 H           4.0591    1.3964    0.3463 H       1  UNL1        0.0274
     22 H           4.2539   -0.1183    1.2371 H       1  UNL1        0.0274
     23 H           4.6199   -0.0635   -0.4778 H       1  UNL1        0.0274
     24 C           1.5716    0.8795   -0.2039 C.2     1  UNL1       -0.0850
     25 H           1.8714    1.9172   -0.0811 H       1  UNL1        0.0572
     26 C           0.1158    0.6554   -0.4871 C.3     1  UNL1       -0.0308
     27 H          -0.2415    1.4249   -1.1767 H       1  UNL1        0.0310
     28 H          -0.0523   -0.3009   -0.9841 H       1  UNL1        0.0310
@<TRIPOS>BOND
     1    27    26    1
     2    28    26    1
     3    17    15    1
     4     8     5    1
     5    26    24    1
     6    26     1    1
     7    23    20    1
     8    18    15    1
     9    14    11    1
    10    24    25    1
    11    24    19    2
    12    15    19    1
    13    15    16    1
    14     6     5    1
    15    19    20    1
    16    10     9    1
    17     5     4    1
    18     5     7    1
    19    20    21    1
    20    20    22    1
    21     9     4    2
    22     9    11    1
    23     4     1    1
    24    11    12    1
    25    11    13    1
    26     1     2    1
    27     1     3    1
