@<TRIPOS>MOLECULE
/home/jramos/PycharmProjects/GeCos/examples/01-IsoP_trueno_rdkit_mp2/01-IsoP_g16_conformers/01-IsoP_3918_gaussian.xyz
 28 27 0 0 0
SMALL
GASTEIGER

@<TRIPOS>ATOM
      1 C          -0.7700   -0.5667   -0.6746 C.3     1  UNL1       -0.0286
      2 H          -0.7489    0.4844   -0.9664 H       1  UNL1        0.0313
      3 H          -0.6082   -1.1414   -1.5912 H       1  UNL1        0.0313
      4 C          -2.0996   -0.9477   -0.0736 C.2     1  UNL1       -0.0765
      5 C          -2.5238   -2.3748   -0.2899 C.3     1  UNL1       -0.0438
      6 H          -3.4521   -2.6003    0.2335 H       1  UNL1        0.0274
      7 H          -1.7581   -3.0688    0.0640 H       1  UNL1        0.0274
      8 H          -2.6708   -2.5793   -1.3526 H       1  UNL1        0.0274
      9 C          -2.8520   -0.1046    0.6578 C.2     1  UNL1       -0.0881
     10 H          -3.7820   -0.4868    1.0694 H       1  UNL1        0.0569
     11 C          -2.5481    1.3278    0.9773 C.3     1  UNL1       -0.0466
     12 H          -2.4958    1.4786    2.0572 H       1  UNL1        0.0272
     13 H          -1.6026    1.6555    0.5514 H       1  UNL1        0.0272
     14 H          -3.3334    1.9870    0.6024 H       1  UNL1        0.0272
     15 C           3.7536    0.7271   -0.9948 C.3     1  UNL1       -0.0440
     16 H           4.5692    0.9271   -0.2962 H       1  UNL1        0.0274
     17 H           3.7202    1.5679   -1.6913 H       1  UNL1        0.0274
     18 H           3.9987   -0.1728   -1.5569 H       1  UNL1        0.0274
     19 C           2.4469    0.5836   -0.2645 C.2     1  UNL1       -0.0796
     20 C           2.0403    1.7875    0.5393 C.3     1  UNL1       -0.0440
     21 H           1.9803    2.6671   -0.1053 H       1  UNL1        0.0274
     22 H           2.7878    2.0077    1.3047 H       1  UNL1        0.0274
     23 H           1.0778    1.6651    1.0295 H       1  UNL1        0.0274
     24 C           1.7295   -0.5527   -0.3471 C.2     1  UNL1       -0.0850
     25 H           2.1195   -1.3458   -0.9802 H       1  UNL1        0.0572
     26 C           0.4009   -0.8289    0.2920 C.3     1  UNL1       -0.0308
     27 H           0.3659   -1.8717    0.6183 H       1  UNL1        0.0310
     28 H           0.2547   -0.2242    1.1878 H       1  UNL1        0.0310
@<TRIPOS>BOND
     1    17    15    1
     2     3     1    1
     3    18    15    1
     4     8     5    1
     5    15    16    1
     6    15    19    1
     7    25    24    1
     8     2     1    1
     9     1     4    1
    10     1    26    1
    11    24    19    2
    12    24    26    1
    13     5     4    1
    14     5     7    1
    15     5     6    1
    16    19    20    1
    17    21    20    1
    18     4     9    2
    19    26    27    1
    20    26    28    1
    21    20    23    1
    22    20    22    1
    23    13    11    1
    24    14    11    1
    25     9    11    1
    26     9    10    1
    27    11    12    1
