@<TRIPOS>MOLECULE
/home/jramos/PycharmProjects/GeCos/examples/01-IsoP_trueno_rdkit_mp2/01-IsoP_g16_conformers/01-IsoP_2319_gaussian.xyz
 28 27 0 0 0
SMALL
GASTEIGER

@<TRIPOS>ATOM
      1 C          -0.2710   -1.1088   -0.0374 C.3     1  UNL11      -0.0286
      2 H           0.1132   -1.0650    0.9829 H       1  UNL11       0.0313
      3 H           0.3185   -1.8724   -0.5531 H       1  UNL11       0.0313
      4 C          -1.7275   -1.4990   -0.0640 C.2     1  UNL11      -0.0765
      5 C          -2.1716   -2.2638   -1.2811 C.3     1  UNL11      -0.0438
      6 H          -3.2457   -2.4452   -1.2700 H       1  UNL11       0.0274
      7 H          -1.6616   -3.2276   -1.3416 H       1  UNL11       0.0274
      8 H          -1.9296   -1.7185   -2.1960 H       1  UNL11       0.0274
      9 C          -2.6057   -1.1535    0.8959 C.2     1  UNL11      -0.0881
     10 H          -3.6397   -1.4619    0.7677 H       1  UNL11       0.0569
     11 C          -2.3166   -0.3762    2.1441 C.3     1  UNL11      -0.0466
     12 H          -2.5667   -0.9577    3.0335 H       1  UNL11       0.0272
     13 H          -1.2715   -0.0836    2.2171 H       1  UNL11       0.0272
     14 H          -2.9193    0.5333    2.1797 H       1  UNL11       0.0272
     15 C           3.6145    1.5629   -0.0974 C.3     1  UNL11      -0.0440
     16 H           3.8401    2.6263   -0.2049 H       1  UNL11       0.0274
     17 H           4.1706    1.2078    0.7732 H       1  UNL11       0.0274
     18 H           3.9900    1.0436   -0.9778 H       1  UNL11       0.0274
     19 C           2.1377    1.3453    0.0844 C.2     1  UNL11      -0.0796
     20 C           1.5430    2.0352    1.2808 C.3     1  UNL11      -0.0440
     21 H           1.6789    3.1165    1.2065 H       1  UNL11       0.0274
     22 H           2.0535    1.7151    2.1916 H       1  UNL11       0.0274
     23 H           0.4818    1.8336    1.4029 H       1  UNL11       0.0274
     24 C           1.4384    0.5879   -0.7816 C.2     1  UNL11      -0.0850
     25 H           1.9876    0.1228   -1.5964 H       1  UNL11       0.0572
     26 C          -0.0223    0.2539   -0.7120 C.3     1  UNL11      -0.0308
     27 H          -0.5817    1.0176   -0.1703 H       1  UNL11       0.0310
     28 H          -0.4371    0.2310   -1.7232 H       1  UNL11       0.0310
@<TRIPOS>BOND
     1    16    15    1
     2    18    15    1
     3    21    20    1
     4    15    19    1
     5    15    17    1
     6    25    24    1
     7    19    24    2
     8    19    20    1
     9    28    26    1
    10    24    26    1
    11    20    23    1
    12    20    22    1
    13    27    26    1
    14    26     1    1
    15     8     5    1
    16     1     3    1
    17     1     4    1
    18     1     2    1
    19     5     4    1
    20     5     6    1
    21     5     7    1
    22    14    11    1
    23     4     9    2
    24    13    11    1
    25     9    11    1
    26     9    10    1
    27    11    12    1
