@<TRIPOS>MOLECULE
/home/jramos/PycharmProjects/GeCos/examples/01-IsoP_trueno_rdkit_mp2/01-IsoP_g16_conformers/01-IsoP_2821_gaussian.xyz
 28 27 0 0 0
SMALL
GASTEIGER

@<TRIPOS>ATOM
      1 C           0.8953   -0.5925   -0.3427 C.3     1  UNL1       -0.0286
      2 H           0.9228   -0.7025    0.7425 H       1  UNL1        0.0313
      3 H           0.9265   -1.6059   -0.7533 H       1  UNL1        0.0313
      4 C           2.0809    0.1893   -0.8499 C.2     1  UNL1       -0.0765
      5 C           2.5541   -0.1737   -2.2311 C.3     1  UNL1       -0.0438
      6 H           2.9135   -1.2046   -2.2600 H       1  UNL1        0.0274
      7 H           3.3606    0.4792   -2.5625 H       1  UNL1        0.0274
      8 H           1.7399   -0.1009   -2.9556 H       1  UNL1        0.0274
      9 C           2.6628    1.1866   -0.1580 C.2     1  UNL1       -0.0881
     10 H           3.4951    1.7057   -0.6254 H       1  UNL1        0.0569
     11 C           2.2868    1.6742    1.2083 C.3     1  UNL1       -0.0466
     12 H           2.0173    2.7316    1.1792 H       1  UNL1        0.0272
     13 H           3.1247    1.5792    1.9017 H       1  UNL1        0.0272
     14 H           1.4427    1.1291    1.6248 H       1  UNL1        0.0272
     15 C          -2.1247    0.4127    1.8442 C.3     1  UNL1       -0.0440
     16 H          -1.9453   -0.0506    2.8169 H       1  UNL1        0.0274
     17 H          -3.0128    1.0394    1.9523 H       1  UNL1        0.0274
     18 H          -1.2790    1.0575    1.6192 H       1  UNL1        0.0274
     19 C          -2.3497   -0.6460    0.8004 C.2     1  UNL1       -0.0796
     20 C          -3.4846   -1.5878    1.0943 C.3     1  UNL1       -0.0440
     21 H          -4.4258   -1.0425    1.1952 H       1  UNL1        0.0274
     22 H          -3.6029   -2.3300    0.3063 H       1  UNL1        0.0274
     23 H          -3.3205   -2.1130    2.0380 H       1  UNL1        0.0274
     24 C          -1.6190   -0.7727   -0.3233 C.2     1  UNL1       -0.0850
     25 H          -1.8661   -1.5945   -0.9908 H       1  UNL1        0.0572
     26 C          -0.4431    0.0632   -0.7334 C.3     1  UNL1       -0.0308
     27 H          -0.4639    0.2108   -1.8165 H       1  UNL1        0.0310
     28 H          -0.4856    1.0585   -0.2894 H       1  UNL1        0.0310
@<TRIPOS>BOND
     1     8     5    1
     2     7     5    1
     3     6     5    1
     4     5     4    1
     5    27    26    1
     6    25    24    1
     7     4     1    1
     8     4     9    2
     9     3     1    1
    10    26     1    1
    11    26    24    1
    12    26    28    1
    13    10     9    1
    14     1     2    1
    15    24    19    2
    16     9    11    1
    17    22    20    1
    18    19    20    1
    19    19    15    1
    20    20    21    1
    21    20    23    1
    22    12    11    1
    23    11    14    1
    24    11    13    1
    25    18    15    1
    26    15    17    1
    27    15    16    1
