@<TRIPOS>MOLECULE
/home/jramos/PycharmProjects/GeCos/examples/01-IsoP_trueno_rdkit_mp2/01-IsoP_g16_conformers/01-IsoP_2949_gaussian.xyz
 28 27 0 0 0
SMALL
GASTEIGER

@<TRIPOS>ATOM
      1 C          -0.3494   -0.8935    0.4259 C.3     1  UNL11      -0.0286
      2 H           0.4323   -1.4130   -0.1352 H       1  UNL11       0.0313
      3 H          -0.1775   -1.1278    1.4778 H       1  UNL11       0.0313
      4 C          -1.7020   -1.3780   -0.0316 C.2     1  UNL11      -0.0765
      5 C          -1.7945   -1.7472   -1.4875 C.3     1  UNL11      -0.0438
      6 H          -1.1421   -2.5928   -1.7157 H       1  UNL11       0.0274
      7 H          -1.4740   -0.9186   -2.1233 H       1  UNL11       0.0274
      8 H          -2.8121   -2.0144   -1.7692 H       1  UNL11       0.0274
      9 C          -2.7835   -1.4399    0.7674 C.2     1  UNL11      -0.0881
     10 H          -3.7163   -1.7798    0.3258 H       1  UNL11       0.0569
     11 C          -2.8530   -1.0862    2.2219 C.3     1  UNL11      -0.0466
     12 H          -1.8978   -0.7416    2.6109 H       1  UNL11       0.0272
     13 H          -3.5849   -0.2942    2.3907 H       1  UNL11       0.0272
     14 H          -3.1704   -1.9442    2.8174 H       1  UNL11       0.0272
     15 C           3.5669    1.7556    0.4505 C.3     1  UNL11      -0.0440
     16 H           3.8781    2.7137    0.0280 H       1  UNL11       0.0274
     17 H           3.5021    1.8646    1.5321 H       1  UNL11       0.0274
     18 H           4.3591    1.0382    0.2251 H       1  UNL11       0.0274
     19 C           2.2570    1.3111   -0.1396 C.2     1  UNL11      -0.0796
     20 C           2.2662    1.1434   -1.6338 C.3     1  UNL11      -0.0440
     21 H           3.0431    0.4344   -1.9275 H       1  UNL11       0.0274
     22 H           1.3189    0.7833   -2.0270 H       1  UNL11       0.0274
     23 H           2.5017    2.0907   -2.1241 H       1  UNL11       0.0274
     24 C           1.1837    1.0959    0.6442 C.2     1  UNL11      -0.0850
     25 H           1.3123    1.2319    1.7153 H       1  UNL11       0.0572
     26 C          -0.1728    0.6225    0.2140 C.3     1  UNL11      -0.0308
     27 H          -0.3613    0.8643   -0.8328 H       1  UNL11       0.0310
     28 H          -0.9421    1.1420    0.7914 H       1  UNL11       0.0310
@<TRIPOS>BOND
     1    18    15    1
     2     2     1    1
     3     6     5    1
     4     3     1    1
     5    21    20    1
     6    17    15    1
     7     1     4    1
     8     1    26    1
     9    15    19    1
    10    15    16    1
    11    14    11    1
    12     5     4    1
    13     5     8    1
    14     5     7    1
    15     4     9    2
    16    19    20    1
    17    19    24    2
    18    20    22    1
    19    20    23    1
    20    25    24    1
    21    12    11    1
    22    24    26    1
    23     9    11    1
    24     9    10    1
    25    11    13    1
    26    26    27    1
    27    26    28    1
