@<TRIPOS>MOLECULE
/home/jramos/PycharmProjects/GeCos/examples/01-IsoP_trueno_rdkit_mp2/01-IsoP_g16_conformers/01-IsoP_3231_gaussian.xyz
 28 27 0 0 0
SMALL
GASTEIGER

@<TRIPOS>ATOM
      1 C          -0.6658    0.8231    0.0891 C.3     1  UNL1       -0.0286
      2 H          -0.7710    1.2731    1.0778 H       1  UNL1        0.0313
      3 H           0.0137    1.4712   -0.4714 H       1  UNL1        0.0313
      4 C          -1.9917    0.7488   -0.6251 C.2     1  UNL1       -0.0765
      5 C          -1.9184    0.8182   -2.1266 C.3     1  UNL1       -0.0438
      6 H          -2.8984    0.6822   -2.5822 H       1  UNL1        0.0274
      7 H          -1.5197    1.7817   -2.4515 H       1  UNL1        0.0274
      8 H          -1.2515    0.0491   -2.5228 H       1  UNL1        0.0274
      9 C          -3.1706    0.5811    0.0025 C.2     1  UNL1       -0.0881
     10 H          -4.0633    0.5140   -0.6134 H       1  UNL1        0.0569
     11 C          -3.3998    0.4720    1.4793 C.3     1  UNL1       -0.0466
     12 H          -4.0653    1.2628    1.8305 H       1  UNL1        0.0272
     13 H          -3.8779   -0.4779    1.7254 H       1  UNL1        0.0272
     14 H          -2.4750    0.5333    2.0481 H       1  UNL1        0.0272
     15 C           2.7759   -0.5451   -1.1416 C.3     1  UNL1       -0.0440
     16 H           3.3720   -1.4285   -1.3815 H       1  UNL1        0.0274
     17 H           3.3443    0.3218   -1.4850 H       1  UNL1        0.0274
     18 H           1.8547   -0.5900   -1.7168 H       1  UNL1        0.0274
     19 C           2.5399   -0.4548    0.3406 C.2     1  UNL1       -0.0796
     20 C           3.7891   -0.3353    1.1693 C.3     1  UNL1       -0.0440
     21 H           4.3566    0.5559    0.8920 H       1  UNL1        0.0274
     22 H           4.4466   -1.1923    1.0067 H       1  UNL1        0.0274
     23 H           3.5602   -0.2776    2.2323 H       1  UNL1        0.0274
     24 C           1.3255   -0.4799    0.9212 C.2     1  UNL1       -0.0850
     25 H           1.2874   -0.3851    2.0037 H       1  UNL1        0.0572
     26 C          -0.0058   -0.5615    0.2353 C.3     1  UNL1       -0.0308
     27 H          -0.6767   -1.2025    0.8131 H       1  UNL1        0.0310
     28 H           0.0851   -1.0230   -0.7488 H       1  UNL1        0.0310
@<TRIPOS>BOND
     1     6     5    1
     2     8     5    1
     3     7     5    1
     4     5     4    1
     5    18    15    1
     6    17    15    1
     7    16    15    1
     8    15    19    1
     9    28    26    1
    10     4     9    2
    11     4     1    1
    12    10     9    1
    13     3     1    1
    14     9    11    1
    15     1    26    1
    16     1     2    1
    17    26    27    1
    18    26    24    1
    19    19    24    2
    20    19    20    1
    21    21    20    1
    22    24    25    1
    23    22    20    1
    24    20    23    1
    25    11    13    1
    26    11    12    1
    27    11    14    1
