@<TRIPOS>MOLECULE
/home/jramos/PycharmProjects/GeCos/examples/01-IsoP_trueno_rdkit_mp2/01-IsoP_g16_conformers/01-IsoP_1622_gaussian.xyz
 28 27 0 0 0
SMALL
GASTEIGER

@<TRIPOS>ATOM
      1 C           0.7344    0.1751   -0.6337 C.3     1  UNL1       -0.0286
      2 H           0.1035   -0.2387   -1.4253 H       1  UNL1        0.0313
      3 H           0.9131    1.2184   -0.8994 H       1  UNL1        0.0313
      4 C           2.0242   -0.6028   -0.5619 C.2     1  UNL1       -0.0765
      5 C           1.9114   -2.0672   -0.8895 C.3     1  UNL1       -0.0438
      6 H           2.8592   -2.5841   -0.7446 H       1  UNL1        0.0274
      7 H           1.5976   -2.2099   -1.9258 H       1  UNL1        0.0274
      8 H           1.1615   -2.5531   -0.2611 H       1  UNL1        0.0274
      9 C           3.2003   -0.0671   -0.1856 C.2     1  UNL1       -0.0881
     10 H           4.0628   -0.7265   -0.1433 H       1  UNL1        0.0569
     11 C           3.4636    1.3593    0.1908 C.3     1  UNL1       -0.0466
     12 H           2.5671    1.9730    0.1433 H       1  UNL1        0.0272
     13 H           4.2128    1.8045   -0.4666 H       1  UNL1        0.0272
     14 H           3.8553    1.4229    1.2076 H       1  UNL1        0.0272
     15 C          -2.8597   -1.1023    0.1928 C.3     1  UNL1       -0.0440
     16 H          -1.9653   -1.7194    0.2229 H       1  UNL1        0.0274
     17 H          -3.5453   -1.4564    0.9660 H       1  UNL1        0.0274
     18 H          -3.3522   -1.2713   -0.7671 H       1  UNL1        0.0274
     19 C          -2.5703    0.3619    0.3751 C.2     1  UNL1       -0.0796
     20 C          -3.7759    1.2563    0.2850 C.3     1  UNL1       -0.0440
     21 H          -4.2631    1.1565   -0.6875 H       1  UNL1        0.0274
     22 H          -3.5095    2.3025    0.4280 H       1  UNL1        0.0274
     23 H          -4.5176    0.9856    1.0398 H       1  UNL1        0.0274
     24 C          -1.3464    0.8731    0.6065 C.2     1  UNL1       -0.0850
     25 H          -1.2660    1.9534    0.6993 H       1  UNL1        0.0572
     26 C          -0.0512    0.1218    0.6908 C.3     1  UNL1       -0.0308
     27 H          -0.2166   -0.9196    0.9698 H       1  UNL1        0.0310
     28 H           0.5724    0.5541    1.4776 H       1  UNL1        0.0310
@<TRIPOS>BOND
     1     7     5    1
     2     2     1    1
     3     3     1    1
     4     5     6    1
     5     5     4    1
     6     5     8    1
     7    18    15    1
     8    21    20    1
     9     1     4    1
    10     1    26    1
    11     4     9    2
    12    13    11    1
    13     9    10    1
    14     9    11    1
    15    12    11    1
    16    11    14    1
    17    15    16    1
    18    15    19    1
    19    15    17    1
    20    20    19    1
    21    20    22    1
    22    20    23    1
    23    19    24    2
    24    24    26    1
    25    24    25    1
    26    26    27    1
    27    26    28    1
