@<TRIPOS>MOLECULE
/home/jramos/PycharmProjects/GeCos/examples/01-IsoP_trueno_rdkit_mp2/01-IsoP_g16_conformers/01-IsoP_096_gaussian.xyz
 28 27 0 0 0
SMALL
GASTEIGER

@<TRIPOS>ATOM
      1 C           0.5715   -0.9908   -0.0582 C.3     1  UNL1       -0.0286
      2 H           0.2461   -2.0304    0.0417 H       1  UNL1        0.0313
      3 H           0.1072   -0.6126   -0.9703 H       1  UNL1        0.0313
      4 C           2.0764   -0.9438   -0.1426 C.2     1  UNL1       -0.0765
      5 C           2.8028   -2.0105    0.6306 C.3     1  UNL1       -0.0438
      6 H           2.5690   -3.0022    0.2375 H       1  UNL1        0.0274
      7 H           3.8823   -1.8712    0.5877 H       1  UNL1        0.0274
      8 H           2.5021   -2.0063    1.6807 H       1  UNL1        0.0274
      9 C           2.7524    0.0083   -0.8122 C.2     1  UNL1       -0.0881
     10 H           3.8379   -0.0328   -0.7881 H       1  UNL1        0.0569
     11 C           2.1693    1.1413   -1.6011 C.3     1  UNL1       -0.0466
     12 H           1.0818    1.1419   -1.5832 H       1  UNL1        0.0272
     13 H           2.5084    2.1006   -1.2055 H       1  UNL1        0.0272
     14 H           2.4893    1.0970   -2.6439 H       1  UNL1        0.0272
     15 C          -2.1026    1.7926    0.0673 C.3     1  UNL1       -0.0440
     16 H          -1.0392    1.9595   -0.0846 H       1  UNL1        0.0274
     17 H          -2.5098    2.6519    0.6048 H       1  UNL1        0.0274
     18 H          -2.5842    1.7764   -0.9128 H       1  UNL1        0.0274
     19 C          -2.3966    0.5184    0.8095 C.2     1  UNL1       -0.0796
     20 C          -3.8590    0.2268    1.0038 C.3     1  UNL1       -0.0440
     21 H          -4.0126   -0.7040    1.5476 H       1  UNL1        0.0274
     22 H          -4.3721    0.1510    0.0425 H       1  UNL1        0.0274
     23 H          -4.3452    1.0321    1.5593 H       1  UNL1        0.0274
     24 C          -1.4553   -0.3202    1.2824 C.2     1  UNL1       -0.0850
     25 H          -1.7956   -1.2228    1.7838 H       1  UNL1        0.0572
     26 C           0.0311   -0.1818    1.1366 C.3     1  UNL1       -0.0308
     27 H           0.3254    0.8610    1.0123 H       1  UNL1        0.0310
     28 H           0.5186   -0.5298    2.0512 H       1  UNL1        0.0310
@<TRIPOS>BOND
     1    14    11    1
     2    11    12    1
     3    11    13    1
     4    11     9    1
     5     3     1    1
     6    18    15    1
     7     9    10    1
     8     9     4    2
     9     4     1    1
    10     4     5    1
    11    16    15    1
    12     1     2    1
    13     1    26    1
    14    22    20    1
    15    15    17    1
    16    15    19    1
    17     6     5    1
    18     7     5    1
    19     5     8    1
    20    19    20    1
    21    19    24    2
    22    20    21    1
    23    20    23    1
    24    27    26    1
    25    26    24    1
    26    26    28    1
    27    24    25    1
