@<TRIPOS>MOLECULE
/home/jramos/PycharmProjects/GeCos/examples/01-IsoP_trueno_rdkit_mp2/01-IsoP_g16_conformers/01-IsoP_2061_gaussian.xyz
 28 27 0 0 0
SMALL
GASTEIGER

@<TRIPOS>ATOM
      1 C          -0.0718   -0.0621    1.0641 C.3     1  UNL1       -0.0286
      2 H          -0.6329    0.5621    1.7654 H       1  UNL1        0.0313
      3 H           0.8181    0.5082    0.7933 H       1  UNL1        0.0313
      4 C           0.2882   -1.3653    1.7321 C.2     1  UNL1       -0.0765
      5 C          -0.7045   -1.8718    2.7427 C.3     1  UNL1       -0.0438
      6 H          -1.7012   -1.9569    2.3039 H       1  UNL1        0.0274
      7 H          -0.7867   -1.1821    3.5856 H       1  UNL1        0.0274
      8 H          -0.4202   -2.8503    3.1277 H       1  UNL1        0.0274
      9 C           1.3893   -2.0766    1.4259 C.2     1  UNL1       -0.0881
     10 H           1.5425   -3.0177    1.9469 H       1  UNL1        0.0569
     11 C           2.4478   -1.7139    0.4289 C.3     1  UNL1       -0.0466
     12 H           3.4253   -1.6337    0.9083 H       1  UNL1        0.0272
     13 H           2.5334   -2.4847   -0.3394 H       1  UNL1        0.0272
     14 H           2.2402   -0.7704   -0.0707 H       1  UNL1        0.0272
     15 C           0.4522    1.2326   -2.5363 C.3     1  UNL1       -0.0440
     16 H           1.2432    1.9821   -2.4627 H       1  UNL1        0.0274
     17 H           0.8429    0.2943   -2.1509 H       1  UNL1        0.0274
     18 H           0.2388    1.1027   -3.5996 H       1  UNL1        0.0274
     19 C          -0.7751    1.7019   -1.8053 C.2     1  UNL1       -0.0796
     20 C          -1.3238    3.0196   -2.2789 C.3     1  UNL1       -0.0440
     21 H          -2.2110    3.3085   -1.7175 H       1  UNL1        0.0274
     22 H          -1.5889    2.9720   -3.3375 H       1  UNL1        0.0274
     23 H          -0.5790    3.8117   -2.1745 H       1  UNL1        0.0274
     24 C          -1.3688    1.0251   -0.8042 C.2     1  UNL1       -0.0850
     25 H          -2.2394    1.4808   -0.3394 H       1  UNL1        0.0572
     26 C          -0.9204   -0.2745   -0.2042 C.3     1  UNL1       -0.0308
     27 H          -1.7965   -0.8768    0.0508 H       1  UNL1        0.0310
     28 H          -0.3415   -0.8648   -0.9156 H       1  UNL1        0.0310
@<TRIPOS>BOND
     1    18    15    1
     2    22    20    1
     3    15    16    1
     4    15    17    1
     5    15    19    1
     6    20    23    1
     7    20    19    1
     8    20    21    1
     9    19    24    2
    10    28    26    1
    11    24    25    1
    12    24    26    1
    13    13    11    1
    14    26    27    1
    15    26     1    1
    16    14    11    1
    17    11    12    1
    18    11     9    1
    19     3     1    1
    20     1     4    1
    21     1     2    1
    22     9     4    2
    23     9    10    1
    24     4     5    1
    25     6     5    1
    26     5     8    1
    27     5     7    1
