@<TRIPOS>MOLECULE
/home/jramos/PycharmProjects/GeCos/examples/01-IsoP_trueno_rdkit_mp2/01-IsoP_g16_conformers/01-IsoP_1937_gaussian.xyz
 28 27 0 0 0
SMALL
GASTEIGER

@<TRIPOS>ATOM
      1 C          -0.2711   -1.1089   -0.0374 C.3     1  UNL11      -0.0286
      2 H           0.3185   -1.8724   -0.5531 H       1  UNL11       0.0313
      3 H           0.1131   -1.0650    0.9830 H       1  UNL11       0.0313
      4 C          -1.7274   -1.4990   -0.0640 C.2     1  UNL11      -0.0765
      5 C          -2.1717   -2.2638   -1.2811 C.3     1  UNL11      -0.0438
      6 H          -1.9296   -1.7185   -2.1960 H       1  UNL11       0.0274
      7 H          -1.6615   -3.2276   -1.3415 H       1  UNL11       0.0274
      8 H          -3.2457   -2.4452   -1.2700 H       1  UNL11       0.0274
      9 C          -2.6057   -1.1535    0.8958 C.2     1  UNL11      -0.0881
     10 H          -3.6396   -1.4618    0.7677 H       1  UNL11       0.0569
     11 C          -2.3166   -0.3762    2.1441 C.3     1  UNL11      -0.0466
     12 H          -2.5668   -0.9577    3.0335 H       1  UNL11       0.0272
     13 H          -2.9193    0.5333    2.1796 H       1  UNL11       0.0272
     14 H          -1.2716   -0.0836    2.2170 H       1  UNL11       0.0272
     15 C           3.6145    1.5629   -0.0974 C.3     1  UNL11      -0.0440
     16 H           4.1706    1.2080    0.7732 H       1  UNL11       0.0274
     17 H           3.8401    2.6263   -0.2049 H       1  UNL11       0.0274
     18 H           3.9900    1.0436   -0.9778 H       1  UNL11       0.0274
     19 C           2.1377    1.3453    0.0843 C.2     1  UNL11      -0.0796
     20 C           1.5430    2.0352    1.2808 C.3     1  UNL11      -0.0440
     21 H           2.0535    1.7151    2.1917 H       1  UNL11       0.0274
     22 H           1.6788    3.1166    1.2066 H       1  UNL11       0.0274
     23 H           0.4818    1.8336    1.4028 H       1  UNL11       0.0274
     24 C           1.4384    0.5878   -0.7816 C.2     1  UNL11      -0.0850
     25 H           1.9877    0.1229   -1.5964 H       1  UNL11       0.0572
     26 C          -0.0223    0.2538   -0.7120 C.3     1  UNL11      -0.0308
     27 H          -0.4371    0.2310   -1.7232 H       1  UNL11       0.0310
     28 H          -0.5817    1.0175   -0.1703 H       1  UNL11       0.0310
@<TRIPOS>BOND
     1    12    11    1
     2    21    20    1
     3    14    11    1
     4    11    13    1
     5    11     9    1
     6    16    15    1
     7     3     1    1
     8    20    23    1
     9    20    22    1
    10    20    19    1
    11     9    10    1
    12     9     4    2
    13    15    19    1
    14    15    17    1
    15    15    18    1
    16    19    24    2
    17     1     2    1
    18     1     4    1
    19     1    26    1
    20     4     5    1
    21    28    26    1
    22    24    26    1
    23    24    25    1
    24    26    27    1
    25     7     5    1
    26     5     8    1
    27     5     6    1
