@<TRIPOS>MOLECULE
/home/jramos/PycharmProjects/GeCos/examples/01-IsoP_trueno_rdkit_mp2/01-IsoP_g16_conformers/01-IsoP_2798_gaussian.xyz
 28 27 0 0 0
SMALL
GASTEIGER

@<TRIPOS>ATOM
      1 C           0.4571    1.0496   -0.2421 C.3     1  UNL1       -0.0286
      2 H          -0.0426    1.9937   -0.4774 H       1  UNL1        0.0313
      3 H           0.4306    0.4547   -1.1564 H       1  UNL1        0.0313
      4 C           1.8730    1.3287    0.1955 C.2     1  UNL1       -0.0765
      5 C           2.0817    2.6272    0.9261 C.3     1  UNL1       -0.0438
      6 H           1.8561    3.4775    0.2788 H       1  UNL1        0.0274
      7 H           3.1075    2.7280    1.2784 H       1  UNL1        0.0274
      8 H           1.4179    2.7013    1.7904 H       1  UNL1        0.0274
      9 C           2.8910    0.4684    0.0070 C.2     1  UNL1       -0.0881
     10 H           3.8688    0.7540    0.3851 H       1  UNL1        0.0569
     11 C           2.8298   -0.8641   -0.6759 C.3     1  UNL1       -0.0466
     12 H           1.8281   -1.1052   -1.0245 H       1  UNL1        0.0272
     13 H           3.1456   -1.6592    0.0022 H       1  UNL1        0.0272
     14 H           3.5022   -0.8943   -1.5354 H       1  UNL1        0.0272
     15 C          -1.5945   -2.2161   -0.4418 C.3     1  UNL1       -0.0440
     16 H          -0.5386   -2.1606   -0.1893 H       1  UNL1        0.0274
     17 H          -2.0300   -3.0619    0.0951 H       1  UNL1        0.0274
     18 H          -1.6744   -2.4437   -1.5070 H       1  UNL1        0.0274
     19 C          -2.3410   -0.9497   -0.1258 C.2     1  UNL1       -0.0796
     20 C          -3.7975   -0.9682   -0.4995 C.3     1  UNL1       -0.0440
     21 H          -3.9225   -1.1427   -1.5706 H       1  UNL1        0.0274
     22 H          -4.2874   -0.0292   -0.2467 H       1  UNL1        0.0274
     23 H          -4.3205   -1.7769    0.0160 H       1  UNL1        0.0274
     24 C          -1.7881    0.1351    0.4489 C.2     1  UNL1       -0.0850
     25 H          -2.4286    0.9994    0.6060 H       1  UNL1        0.0572
     26 C          -0.3519    0.3136    0.8431 C.3     1  UNL1       -0.0308
     27 H          -0.3003    0.8848    1.7738 H       1  UNL1        0.0310
     28 H           0.1290   -0.6441    1.0462 H       1  UNL1        0.0310
@<TRIPOS>BOND
     1    21    20    1
     2    14    11    1
     3    18    15    1
     4     3     1    1
     5    12    11    1
     6    11    13    1
     7    11     9    1
     8    20    22    1
     9    20    19    1
    10    20    23    1
    11     2     1    1
    12    15    16    1
    13    15    19    1
    14    15    17    1
    15     1     4    1
    16     1    26    1
    17    19    24    2
    18     9     4    2
    19     9    10    1
    20     4     5    1
    21     6     5    1
    22    24    25    1
    23    24    26    1
    24    26    28    1
    25    26    27    1
    26     5     7    1
    27     5     8    1
