@<TRIPOS>MOLECULE
/home/jramos/PycharmProjects/GeCos/examples/01-IsoP_trueno_rdkit_mp2/01-IsoP_g16_conformers/01-IsoP_2297_gaussian.xyz
 28 27 0 0 0
SMALL
GASTEIGER

@<TRIPOS>ATOM
      1 C          -0.9457    0.0382   -0.0438 C.3     1  UNL11      -0.0286
      2 H          -0.7311    0.4045   -1.0517 H       1  UNL11       0.0313
      3 H          -1.4470    0.8554    0.4779 H       1  UNL11       0.0313
      4 C          -1.8276   -1.1818   -0.1306 C.2     1  UNL11      -0.0765
      5 C          -1.5937   -2.0608   -1.3294 C.3     1  UNL11      -0.0438
      6 H          -2.2066   -2.9605   -1.2920 H       1  UNL11       0.0274
      7 H          -1.8247   -1.5263   -2.2534 H       1  UNL11       0.0274
      8 H          -0.5470   -2.3669   -1.3931 H       1  UNL11       0.0274
      9 C          -2.7340   -1.5171    0.8064 C.2     1  UNL11      -0.0881
     10 H          -3.2978   -2.4337    0.6556 H       1  UNL11       0.0569
     11 C          -3.0615   -0.7605    2.0577 C.3     1  UNL11      -0.0466
     12 H          -2.4625    0.1406    2.1661 H       1  UNL11       0.0272
     13 H          -2.8890   -1.3811    2.9388 H       1  UNL11       0.0272
     14 H          -4.1137   -0.4706    2.0744 H       1  UNL11       0.0272
     15 C           3.0705    2.5312    0.0594 C.3     1  UNL11      -0.0440
     16 H           3.0080    3.1490   -0.8392 H       1  UNL11       0.0274
     17 H           4.1295    2.3211    0.2259 H       1  UNL11       0.0274
     18 H           2.7018    3.1149    0.9016 H       1  UNL11       0.0274
     19 C           2.2926    1.2556   -0.1116 C.2     1  UNL11      -0.0796
     20 C           2.7478    0.3909   -1.2543 C.3     1  UNL11      -0.0440
     21 H           2.7106    0.9539   -2.1894 H       1  UNL11       0.0274
     22 H           2.1425   -0.5034   -1.3781 H       1  UNL11       0.0274
     23 H           3.7864    0.0837   -1.1121 H       1  UNL11       0.0274
     24 C           1.2781    0.9484    0.7186 C.2     1  UNL11      -0.0850
     25 H           1.0326    1.6689    1.4949 H       1  UNL11       0.0572
     26 C           0.3924   -0.2605    0.6592 C.3     1  UNL11      -0.0308
     27 H           0.8888   -1.0887    0.1519 H       1  UNL11       0.0310
     28 H           0.1776   -0.6072    1.6734 H       1  UNL11       0.0310
@<TRIPOS>BOND
     1     6     5    1
     2     8     5    1
     3     5     7    1
     4     5     4    1
     5    10     9    1
     6    27    26    1
     7    22    20    1
     8    23    20    1
     9    28    26    1
    10     9     4    2
    11     9    11    1
    12    13    11    1
    13     4     1    1
    14    26     1    1
    15    26    24    1
    16    20    21    1
    17    20    19    1
    18    11    14    1
    19    11    12    1
    20     1     2    1
    21     1     3    1
    22    24    19    2
    23    24    25    1
    24    19    15    1
    25    17    15    1
    26    15    18    1
    27    15    16    1
