@<TRIPOS>MOLECULE
/home/jramos/PycharmProjects/GeCos/examples/01-IsoP_trueno_rdkit_mp2/01-IsoP_g16_conformers/01-IsoP_497_gaussian.xyz
 28 27 0 0 0
SMALL
GASTEIGER

@<TRIPOS>ATOM
      1 C          -0.9450   -0.1214   -0.4549 C.3     1  UNL11      -0.0286
      2 H          -1.1421    0.2679   -1.4578 H       1  UNL11       0.0313
      3 H          -1.1000    0.7126    0.2316 H       1  UNL11       0.0313
      4 C          -1.8909   -1.2595   -0.1652 C.2     1  UNL11      -0.0765
      5 C          -2.2912   -2.0886   -1.3551 C.3     1  UNL11      -0.0438
      6 H          -2.9114   -2.9351   -1.0629 H       1  UNL11       0.0274
      7 H          -1.4127   -2.4759   -1.8758 H       1  UNL11       0.0274
      8 H          -2.8488   -1.4878   -2.0770 H       1  UNL11       0.0274
      9 C          -2.3217   -1.5697    1.0717 C.2     1  UNL11      -0.0881
     10 H          -2.9810   -2.4271    1.1757 H       1  UNL11       0.0569
     11 C          -1.9891   -0.8560    2.3469 C.3     1  UNL11      -0.0466
     12 H          -1.5080   -1.5347    3.0538 H       1  UNL11       0.0272
     13 H          -1.3188   -0.0144    2.1878 H       1  UNL11       0.0272
     14 H          -2.8923   -0.4807    2.8319 H       1  UNL11       0.0272
     15 C           1.9887    1.3822    1.5568 C.3     1  UNL11      -0.0440
     16 H           1.3184    0.6078    1.9211 H       1  UNL11       0.0274
     17 H           2.9711    1.2230    2.0069 H       1  UNL11       0.0274
     18 H           1.6246    2.3435    1.9260 H       1  UNL11       0.0274
     19 C           2.0936    1.4099    0.0571 C.2     1  UNL11      -0.0796
     20 C           2.9783    2.4952   -0.4915 C.3     1  UNL11      -0.0440
     21 H           3.0189    2.4666   -1.5793 H       1  UNL11       0.0274
     22 H           2.6193    3.4811   -0.1878 H       1  UNL11       0.0274
     23 H           3.9965    2.3973   -0.1081 H       1  UNL11       0.0274
     24 C           1.4656    0.5480   -0.7648 C.2     1  UNL11      -0.0850
     25 H           1.6036    0.6855   -1.8342 H       1  UNL11       0.0572
     26 C           0.5305   -0.5563   -0.3695 C.3     1  UNL11      -0.0308
     27 H           0.6866   -1.4156   -1.0271 H       1  UNL11       0.0310
     28 H           0.7319   -0.9073    0.6434 H       1  UNL11       0.0310
@<TRIPOS>BOND
     1    18    15    1
     2    17    15    1
     3    14    11    1
     4    12    11    1
     5    16    15    1
     6    15    19    1
     7    13    11    1
     8    11     9    1
     9    22    20    1
    10    23    20    1
    11    19    20    1
    12    19    24    2
    13    20    21    1
    14     3     1    1
    15     9    10    1
    16     9     4    2
    17    28    26    1
    18    24    26    1
    19    24    25    1
    20     1    26    1
    21     1     4    1
    22     1     2    1
    23    26    27    1
    24     4     5    1
    25     5     6    1
    26     5     8    1
    27     5     7    1
