@<TRIPOS>MOLECULE
/home/jramos/PycharmProjects/GeCos/examples/01-IsoP_trueno_rdkit_mp2/01-IsoP_g16_conformers/01-IsoP_1003_gaussian.xyz
 28 27 0 0 0
SMALL
GASTEIGER

@<TRIPOS>ATOM
      1 C          -0.7887   -0.3778    0.3316 C.3     1  UNL1       -0.0286
      2 H          -0.9817   -1.4400    0.1712 H       1  UNL1        0.0313
      3 H          -0.2389   -0.3056    1.2741 H       1  UNL1        0.0313
      4 C          -2.0733    0.4045    0.4388 C.2     1  UNL1       -0.0765
      5 C          -2.0056    1.6379    1.2982 C.3     1  UNL1       -0.0438
      6 H          -2.9404    2.1964    1.2716 H       1  UNL1        0.0274
      7 H          -1.2046    2.3030    0.9676 H       1  UNL1        0.0274
      8 H          -1.7919    1.3759    2.3368 H       1  UNL1        0.0274
      9 C          -3.2038    0.0788   -0.2153 C.2     1  UNL1       -0.0881
     10 H          -4.0647    0.7290   -0.0863 H       1  UNL1        0.0569
     11 C          -3.4171   -1.0972   -1.1192 C.3     1  UNL1       -0.0466
     12 H          -4.2205   -1.7353   -0.7465 H       1  UNL1        0.0272
     13 H          -3.7109   -0.7670   -2.1173 H       1  UNL1        0.0272
     14 H          -2.5233   -1.7078   -1.2232 H       1  UNL1        0.0272
     15 C           2.8550    1.0203    0.3713 C.3     1  UNL1       -0.0440
     16 H           1.9616    1.6274    0.4929 H       1  UNL1        0.0274
     17 H           3.6068    1.6186   -0.1482 H       1  UNL1        0.0274
     18 H           3.2536    0.8064    1.3653 H       1  UNL1        0.0274
     19 C           2.5978   -0.2625   -0.3698 C.2     1  UNL1       -0.0796
     20 C           3.7979   -1.1576   -0.5113 C.3     1  UNL1       -0.0440
     21 H           3.5561   -2.0677   -1.0581 H       1  UNL1        0.0274
     22 H           4.1907   -1.4401    0.4680 H       1  UNL1        0.0274
     23 H           4.6047   -0.6448   -1.0399 H       1  UNL1        0.0274
     24 C           1.4060   -0.6182   -0.8854 C.2     1  UNL1       -0.0850
     25 H           1.3447   -1.5837   -1.3816 H       1  UNL1        0.0572
     26 C           0.1173    0.1443   -0.8001 C.3     1  UNL1       -0.0308
     27 H           0.2984    1.2100   -0.6539 H       1  UNL1        0.0310
     28 H          -0.4255    0.0529   -1.7445 H       1  UNL1        0.0310
@<TRIPOS>BOND
     1    13    11    1
     2    28    26    1
     3    25    24    1
     4    14    11    1
     5    11    12    1
     6    11     9    1
     7    21    20    1
     8    23    20    1
     9    24    26    1
    10    24    19    2
    11    26    27    1
    12    26     1    1
    13    20    19    1
    14    20    22    1
    15    19    15    1
    16     9    10    1
    17     9     4    2
    18    17    15    1
    19     2     1    1
    20     1     4    1
    21     1     3    1
    22    15    16    1
    23    15    18    1
    24     4     5    1
    25     7     5    1
    26     6     5    1
    27     5     8    1
