@<TRIPOS>MOLECULE
/home/jramos/PycharmProjects/GeCos/examples/01-IsoP_trueno_rdkit_mp2/01-IsoP_g16_conformers/01-IsoP_2954_gaussian.xyz
 28 27 0 0 0
SMALL
GASTEIGER

@<TRIPOS>ATOM
      1 C           0.7503   -0.7591   -0.4642 C.3     1  UNL1       -0.0286
      2 H           0.5586   -1.7162   -0.9578 H       1  UNL1        0.0313
      3 H           0.6879   -0.9513    0.6080 H       1  UNL1        0.0313
      4 C           2.1171   -0.2582   -0.8580 C.2     1  UNL1       -0.0765
      5 C           2.5669   -0.6248   -2.2461 C.3     1  UNL1       -0.0438
      6 H           2.6668   -1.7076   -2.3486 H       1  UNL1        0.0274
      7 H           3.5252   -0.1682   -2.4902 H       1  UNL1        0.0274
      8 H           1.8376   -0.3013   -2.9922 H       1  UNL1        0.0274
      9 C           2.8825    0.5121   -0.0626 C.2     1  UNL1       -0.0881
     10 H           3.8412    0.8429   -0.4525 H       1  UNL1        0.0569
     11 C           2.5580    0.9762    1.3249 C.3     1  UNL1       -0.0466
     12 H           1.5845    0.6267    1.6614 H       1  UNL1        0.0272
     13 H           3.3066    0.6276    2.0389 H       1  UNL1        0.0272
     14 H           2.5548    2.0667    1.3753 H       1  UNL1        0.0272
     15 C          -3.8154   -0.7479    0.7163 C.3     1  UNL1       -0.0440
     16 H          -3.8379   -1.3647    1.6176 H       1  UNL1        0.0274
     17 H          -4.0645   -1.3786   -0.1357 H       1  UNL1        0.0274
     18 H          -4.6006    0.0034    0.8273 H       1  UNL1        0.0274
     19 C          -2.4712   -0.0955    0.5465 C.2     1  UNL1       -0.0796
     20 C          -2.0567    0.7962    1.6840 C.3     1  UNL1       -0.0440
     21 H          -1.0685    1.2278    1.5467 H       1  UNL1        0.0274
     22 H          -2.7713    1.6126    1.8111 H       1  UNL1        0.0274
     23 H          -2.0512    0.2335    2.6200 H       1  UNL1        0.0274
     24 C          -1.7296   -0.3159   -0.5555 C.2     1  UNL1       -0.0850
     25 H          -2.1296   -1.0007   -1.2991 H       1  UNL1        0.0572
     26 C          -0.3646    0.2325   -0.8484 C.3     1  UNL1       -0.0308
     27 H          -0.1902    1.1726   -0.3235 H       1  UNL1        0.0310
     28 H          -0.2868    0.4593   -1.9151 H       1  UNL1        0.0310
@<TRIPOS>BOND
     1     8     5    1
     2     7     5    1
     3     6     5    1
     4     5     4    1
     5    28    26    1
     6    25    24    1
     7     2     1    1
     8     4     1    1
     9     4     9    2
    10    26    24    1
    11    26     1    1
    12    26    27    1
    13    24    19    2
    14     1     3    1
    15    10     9    1
    16    17    15    1
    17     9    11    1
    18    19    15    1
    19    19    20    1
    20    15    18    1
    21    15    16    1
    22    11    14    1
    23    11    12    1
    24    11    13    1
    25    21    20    1
    26    20    22    1
    27    20    23    1
