@<TRIPOS>MOLECULE
/home/jramos/PycharmProjects/GeCos/examples/01-IsoP_trueno_rdkit_mp2/01-IsoP_g16_conformers/01-IsoP_2566_gaussian.xyz
 28 27 0 0 0
SMALL
GASTEIGER

@<TRIPOS>ATOM
      1 C           0.9552    0.4799   -0.4759 C.3     1  UNL1       -0.0286
      2 H           1.0606    1.3994   -1.0589 H       1  UNL1        0.0313
      3 H           0.8863    0.7877    0.5687 H       1  UNL1        0.0313
      4 C           2.1536   -0.4038   -0.7146 C.2     1  UNL1       -0.0765
      5 C           2.7650   -0.3106   -2.0861 C.3     1  UNL1       -0.0438
      6 H           3.1623    0.6905   -2.2668 H       1  UNL1        0.0274
      7 H           2.0190   -0.5007   -2.8610 H       1  UNL1        0.0274
      8 H           3.5746   -1.0281   -2.2132 H       1  UNL1        0.0274
      9 C           2.6328   -1.2670    0.2003 C.2     1  UNL1       -0.0881
     10 H           3.4855   -1.8786   -0.0817 H       1  UNL1        0.0569
     11 C           2.1151   -1.4871    1.5894 C.3     1  UNL1       -0.0466
     12 H           2.8883   -1.2814    2.3320 H       1  UNL1        0.0272
     13 H           1.2564   -0.8591    1.8156 H       1  UNL1        0.0272
     14 H           1.8115   -2.5267    1.7269 H       1  UNL1        0.0272
     15 C          -2.2879   -0.0487    1.5529 C.3     1  UNL1       -0.0440
     16 H          -2.1825    0.5825    2.4379 H       1  UNL1        0.0274
     17 H          -1.4488   -0.7396    1.5323 H       1  UNL1        0.0274
     18 H          -3.2042   -0.6283    1.6862 H       1  UNL1        0.0274
     19 C          -2.3774    0.8032    0.3172 C.2     1  UNL1       -0.0796
     20 C          -3.5000    1.8039    0.3231 C.3     1  UNL1       -0.0440
     21 H          -3.5183    2.3900   -0.5944 H       1  UNL1        0.0274
     22 H          -3.4048    2.4909    1.1670 H       1  UNL1        0.0274
     23 H          -4.4654    1.3040    0.4294 H       1  UNL1        0.0274
     24 C          -1.5421    0.7070   -0.7343 C.2     1  UNL1       -0.0850
     25 H          -1.6968    1.3960   -1.5609 H       1  UNL1        0.0572
     26 C          -0.3642   -0.2118   -0.8692 C.3     1  UNL1       -0.0308
     27 H          -0.4834   -1.1072   -0.2579 H       1  UNL1        0.0310
     28 H          -0.2903   -0.5562   -1.9042 H       1  UNL1        0.0310
@<TRIPOS>BOND
     1     7     5    1
     2     6     5    1
     3     8     5    1
     4     5     4    1
     5    28    26    1
     6    25    24    1
     7     2     1    1
     8    26    24    1
     9    26     1    1
    10    26    27    1
    11    24    19    2
    12     4     1    1
    13     4     9    2
    14    21    20    1
    15     1     3    1
    16    10     9    1
    17     9    11    1
    18    19    20    1
    19    19    15    1
    20    20    23    1
    21    20    22    1
    22    17    15    1
    23    15    18    1
    24    15    16    1
    25    11    14    1
    26    11    13    1
    27    11    12    1
