@<TRIPOS>MOLECULE
/home/jramos/PycharmProjects/GeCos/examples/01-IsoP_trueno_rdkit_mp2/01-IsoP_g16_conformers/01-IsoP_3975_gaussian.xyz
 28 27 0 0 0
SMALL
GASTEIGER

@<TRIPOS>ATOM
      1 C           0.7963    0.2386    0.5255 C.3     1  UNL1       -0.0286
      2 H           0.1868    0.1325    1.4272 H       1  UNL1        0.0313
      3 H           1.1109    1.2831    0.4906 H       1  UNL1        0.0313
      4 C           1.9814   -0.6901    0.6087 C.2     1  UNL1       -0.0765
      5 C           1.7313   -1.9895    1.3251 C.3     1  UNL1       -0.0438
      6 H           0.8850   -2.5229    0.8863 H       1  UNL1        0.0274
      7 H           2.6010   -2.6440    1.2829 H       1  UNL1        0.0274
      8 H           1.4853   -1.8130    2.3745 H       1  UNL1        0.0274
      9 C           3.1771   -0.4283    0.0487 C.2     1  UNL1       -0.0881
     10 H           3.9544   -1.1810    0.1475 H       1  UNL1        0.0569
     11 C           3.5682    0.8026   -0.7112 C.3     1  UNL1       -0.0466
     12 H           4.4115    1.3048   -0.2333 H       1  UNL1        0.0272
     13 H           3.8840    0.5455   -1.7239 H       1  UNL1        0.0272
     14 H           2.7525    1.5174   -0.7910 H       1  UNL1        0.0272
     15 C          -2.9717   -0.7374    0.2388 C.3     1  UNL1       -0.0440
     16 H          -3.4036   -0.5831    1.2299 H       1  UNL1        0.0274
     17 H          -2.1571   -1.4505    0.3365 H       1  UNL1        0.0274
     18 H          -3.7508   -1.1910   -0.3779 H       1  UNL1        0.0274
     19 C          -2.5353    0.5774   -0.3458 C.2     1  UNL1       -0.0796
     20 C          -3.6224    1.6116   -0.4468 C.3     1  UNL1       -0.0440
     21 H          -4.4465    1.2497   -1.0658 H       1  UNL1        0.0274
     22 H          -3.2527    2.5399   -0.8794 H       1  UNL1        0.0274
     23 H          -4.0404    1.8346    0.5375 H       1  UNL1        0.0274
     24 C          -1.2837    0.8477   -0.7620 C.2     1  UNL1       -0.0850
     25 H          -1.0903    1.8459   -1.1472 H       1  UNL1        0.0572
     26 C          -0.0912   -0.0596   -0.6983 C.3     1  UNL1       -0.0308
     27 H          -0.3934   -1.1074   -0.6772 H       1  UNL1        0.0310
     28 H           0.5135    0.0665   -1.6000 H       1  UNL1        0.0310
@<TRIPOS>BOND
     1    13    11    1
     2    28    26    1
     3    25    24    1
     4    21    20    1
     5    22    20    1
     6    14    11    1
     7    24    26    1
     8    24    19    2
     9    11    12    1
    10    11     9    1
    11    26    27    1
    12    26     1    1
    13    20    19    1
    14    20    23    1
    15    18    15    1
    16    19    15    1
    17     9    10    1
    18     9     4    2
    19    15    17    1
    20    15    16    1
    21     3     1    1
    22     1     4    1
    23     1     2    1
    24     4     5    1
    25     6     5    1
    26     7     5    1
    27     5     8    1
