@<TRIPOS>MOLECULE
/home/jramos/PycharmProjects/GeCos/examples/01-IsoP_trueno_rdkit_mp2/01-IsoP_g16_conformers/01-IsoP_1867_gaussian.xyz
 28 27 0 0 0
SMALL
GASTEIGER

@<TRIPOS>ATOM
      1 C           0.5732   -0.2283    0.7905 C.3     1  UNL1       -0.0286
      2 H           1.2675    0.5426    1.1292 H       1  UNL1        0.0313
      3 H          -0.3109   -0.1459    1.4287 H       1  UNL1        0.0313
      4 C           1.1689   -1.6061    0.9338 C.2     1  UNL1       -0.0765
      5 C           0.1783   -2.7137    1.1717 C.3     1  UNL1       -0.0438
      6 H          -0.3411   -2.5722    2.1220 H       1  UNL1        0.0274
      7 H           0.6640   -3.6885    1.1891 H       1  UNL1        0.0274
      8 H          -0.5863   -2.7305    0.3917 H       1  UNL1        0.0274
      9 C           2.4834   -1.8686    0.8122 C.2     1  UNL1       -0.0881
     10 H           2.8007   -2.9034    0.9078 H       1  UNL1        0.0569
     11 C           3.5811   -0.8818    0.5536 C.3     1  UNL1       -0.0466
     12 H           4.3165   -0.8957    1.3602 H       1  UNL1        0.0272
     13 H           3.2095    0.1354    0.4547 H       1  UNL1        0.0272
     14 H           4.1137   -1.1310   -0.3660 H       1  UNL1        0.0272
     15 C          -2.2404    3.1613   -0.9270 C.3     1  UNL1       -0.0440
     16 H          -2.8621    3.4320   -0.0706 H       1  UNL1        0.0274
     17 H          -2.8520    3.3061   -1.8204 H       1  UNL1        0.0274
     18 H          -1.4009    3.8533   -0.9722 H       1  UNL1        0.0274
     19 C          -1.7757    1.7348   -0.8226 C.2     1  UNL1       -0.0796
     20 C          -2.8810    0.7173   -0.7609 C.3     1  UNL1       -0.0440
     21 H          -2.5161   -0.3001   -0.6454 H       1  UNL1        0.0274
     22 H          -3.4923    0.7605   -1.6651 H       1  UNL1        0.0274
     23 H          -3.5443    0.9335    0.0792 H       1  UNL1        0.0274
     24 C          -0.4632    1.4361   -0.7941 C.2     1  UNL1       -0.0850
     25 H           0.2385    2.2660   -0.8241 H       1  UNL1        0.0572
     26 C           0.1543    0.0759   -0.6608 C.3     1  UNL1       -0.0308
     27 H          -0.5258   -0.7021   -1.0100 H       1  UNL1        0.0310
     28 H           1.0424    0.0132   -1.2950 H       1  UNL1        0.0310
@<TRIPOS>BOND
     1    17    15    1
     2    22    20    1
     3    28    26    1
     4    27    26    1
     5    18    15    1
     6    15    19    1
     7    15    16    1
     8    25    24    1
     9    19    24    2
    10    19    20    1
    11    24    26    1
    12    20    21    1
    13    20    23    1
    14    26     1    1
    15    14    11    1
    16     8     5    1
    17    13    11    1
    18    11     9    1
    19    11    12    1
    20     1     4    1
    21     1     2    1
    22     1     3    1
    23     9    10    1
    24     9     4    2
    25     4     5    1
    26     5     7    1
    27     5     6    1
