@<TRIPOS>MOLECULE
/home/jramos/PycharmProjects/GeCos/examples/01-IsoP_trueno_rdkit_mp2/01-IsoP_g16_conformers/01-IsoP_1831_gaussian.xyz
 28 27 0 0 0
SMALL
GASTEIGER

@<TRIPOS>ATOM
      1 C          -0.8424    0.2623    0.7686 C.3     1  UNL1       -0.0286
      2 H          -0.8129    1.0337   -0.0024 H       1  UNL1        0.0313
      3 H          -0.7778    0.7857    1.7269 H       1  UNL1        0.0313
      4 C          -2.1272   -0.5254    0.7146 C.2     1  UNL1       -0.0765
      5 C          -2.6134   -1.0639    2.0326 C.3     1  UNL1       -0.0438
      6 H          -3.5003   -1.6842    1.9091 H       1  UNL1        0.0274
      7 H          -1.8427   -1.6675    2.5172 H       1  UNL1        0.0274
      8 H          -2.8570   -0.2497    2.7186 H       1  UNL1        0.0274
      9 C          -2.7873   -0.7907   -0.4281 C.2     1  UNL1       -0.0881
     10 H          -3.6905   -1.3909   -0.3608 H       1  UNL1        0.0569
     11 C          -2.4120   -0.3464   -1.8093 C.3     1  UNL1       -0.0466
     12 H          -3.2050    0.2572   -2.2548 H       1  UNL1        0.0272
     13 H          -2.2629   -1.2074   -2.4636 H       1  UNL1        0.0272
     14 H          -1.4963    0.2404   -1.8211 H       1  UNL1        0.0272
     15 C           3.6762    1.4426    0.1134 C.3     1  UNL1       -0.0440
     16 H           3.6101    2.4591   -0.2810 H       1  UNL1        0.0274
     17 H           3.8437    1.5030    1.1877 H       1  UNL1        0.0274
     18 H           4.5544    0.9818   -0.3447 H       1  UNL1        0.0274
     19 C           2.4327    0.6606   -0.2087 C.2     1  UNL1       -0.0796
     20 C           2.1346    0.5301   -1.6767 C.3     1  UNL1       -0.0440
     21 H           1.2140   -0.0126   -1.8762 H       1  UNL1        0.0274
     22 H           2.0478    1.5190   -2.1321 H       1  UNL1        0.0274
     23 H           2.9514    0.0173   -2.1896 H       1  UNL1        0.0274
     24 C           1.6751    0.1317    0.7706 C.2     1  UNL1       -0.0850
     25 H           1.9843    0.3149    1.7966 H       1  UNL1        0.0572
     26 C           0.3979   -0.6375    0.6069 C.3     1  UNL1       -0.0308
     27 H           0.3479   -1.1272   -0.3664 H       1  UNL1        0.0310
     28 H           0.3578   -1.4357    1.3528 H       1  UNL1        0.0310
@<TRIPOS>BOND
     1    13    11    1
     2    12    11    1
     3    23    20    1
     4    22    20    1
     5    21    20    1
     6    14    11    1
     7    11     9    1
     8    20    19    1
     9     9    10    1
    10     9     4    2
    11    27    26    1
    12    18    15    1
    13    16    15    1
    14    19    15    1
    15    19    24    2
    16     2     1    1
    17    15    17    1
    18    26     1    1
    19    26    24    1
    20    26    28    1
    21     4     1    1
    22     4     5    1
    23     1     3    1
    24    24    25    1
    25     6     5    1
    26     5     7    1
    27     5     8    1
