@<TRIPOS>MOLECULE
/home/jramos/PycharmProjects/GeCos/examples/01-IsoP_trueno_rdkit_mp2/01-IsoP_g16_conformers/01-IsoP_2030_gaussian.xyz
 28 27 0 0 0
SMALL
GASTEIGER

@<TRIPOS>ATOM
      1 C           0.8508   -0.3046    0.7865 C.3     1  UNL1       -0.0286
      2 H           0.8104    0.7837    0.7203 H       1  UNL1        0.0313
      3 H           0.7963   -0.5480    1.8515 H       1  UNL1        0.0313
      4 C           2.1368   -0.8464    0.2149 C.2     1  UNL1       -0.0765
      5 C           2.6399   -2.1182    0.8418 C.3     1  UNL1       -0.0438
      6 H           3.5267   -2.4924    0.3319 H       1  UNL1        0.0274
      7 H           1.8764   -2.8988    0.8105 H       1  UNL1        0.0274
      8 H           2.8896   -1.9604    1.8932 H       1  UNL1        0.0274
      9 C           2.7839   -0.2818   -0.8216 C.2     1  UNL1       -0.0881
     10 H           3.6893   -0.7672   -1.1754 H       1  UNL1        0.0569
     11 C           2.3912    0.9624   -1.5590 C.3     1  UNL1       -0.0466
     12 H           3.1775    1.7173   -1.4986 H       1  UNL1        0.0272
     13 H           2.2365    0.7494   -2.6185 H       1  UNL1        0.0272
     14 H           1.4740    1.4009   -1.1724 H       1  UNL1        0.0272
     15 C          -3.6780    0.9699    1.1106 C.3     1  UNL1       -0.0440
     16 H          -3.6191    1.9932    1.4881 H       1  UNL1        0.0274
     17 H          -4.5605    0.9198    0.4686 H       1  UNL1        0.0274
     18 H          -3.8330    0.3019    1.9565 H       1  UNL1        0.0274
     19 C          -2.4366    0.6096    0.3422 C.2     1  UNL1       -0.0796
     20 C          -2.1555    1.4872   -0.8460 C.3     1  UNL1       -0.0440
     21 H          -1.2361    1.2217   -1.3616 H       1  UNL1        0.0274
     22 H          -2.0765    2.5304   -0.5325 H       1  UNL1        0.0274
     23 H          -2.9771    1.4349   -1.5640 H       1  UNL1        0.0274
     24 C          -1.6662   -0.4280    0.7198 C.2     1  UNL1       -0.0850
     25 H          -1.9636   -0.9735    1.6119 H       1  UNL1        0.0572
     26 C          -0.3891   -0.8834    0.0783 C.3     1  UNL1       -0.0308
     27 H          -0.3383   -1.9751    0.1079 H       1  UNL1        0.0310
     28 H          -0.3495   -0.6050   -0.9756 H       1  UNL1        0.0310
@<TRIPOS>BOND
     1    13    11    1
     2    23    20    1
     3    11    12    1
     4    11    14    1
     5    11     9    1
     6    21    20    1
     7    10     9    1
     8    28    26    1
     9    20    22    1
    10    20    19    1
    11     9     4    2
    12    26    27    1
    13    26    24    1
    14    26     1    1
    15     4     1    1
    16     4     5    1
    17     6     5    1
    18    19    24    2
    19    19    15    1
    20    17    15    1
    21    24    25    1
    22     2     1    1
    23     1     3    1
    24     7     5    1
    25     5     8    1
    26    15    16    1
    27    15    18    1
