@<TRIPOS>MOLECULE
/home/jramos/PycharmProjects/GeCos/examples/01-IsoP_trueno_rdkit_mp2/01-IsoP_g16_conformers/01-IsoP_2879_gaussian.xyz
 28 27 0 0 0
SMALL
GASTEIGER

@<TRIPOS>ATOM
      1 C          -0.9457    0.0382   -0.0439 C.3     1  UNL11      -0.0286
      2 H          -1.4470    0.8554    0.4778 H       1  UNL11       0.0313
      3 H          -0.7311    0.4044   -1.0517 H       1  UNL11       0.0313
      4 C          -1.8276   -1.1818   -0.1306 C.2     1  UNL11      -0.0765
      5 C          -1.5937   -2.0609   -1.3292 C.3     1  UNL11      -0.0438
      6 H          -0.5470   -2.3670   -1.3930 H       1  UNL11       0.0274
      7 H          -1.8247   -1.5266   -2.2534 H       1  UNL11       0.0274
      8 H          -2.2065   -2.9606   -1.2919 H       1  UNL11       0.0274
      9 C          -2.7341   -1.5171    0.8063 C.2     1  UNL11      -0.0881
     10 H          -3.2977   -2.4338    0.6557 H       1  UNL11       0.0569
     11 C          -3.0616   -0.7604    2.0577 C.3     1  UNL11      -0.0466
     12 H          -2.4626    0.1408    2.1660 H       1  UNL11       0.0272
     13 H          -2.8892   -1.3810    2.9388 H       1  UNL11       0.0272
     14 H          -4.1138   -0.4705    2.0744 H       1  UNL11       0.0272
     15 C           3.0704    2.5313    0.0593 C.3     1  UNL11      -0.0440
     16 H           2.7017    3.1150    0.9015 H       1  UNL11       0.0274
     17 H           3.0079    3.1489   -0.8395 H       1  UNL11       0.0274
     18 H           4.1294    2.3212    0.2260 H       1  UNL11       0.0274
     19 C           2.2926    1.2556   -0.1116 C.2     1  UNL11      -0.0796
     20 C           2.7480    0.3908   -1.2542 C.3     1  UNL11      -0.0440
     21 H           2.1426   -0.5035   -1.3780 H       1  UNL11       0.0274
     22 H           3.7864    0.0836   -1.1120 H       1  UNL11       0.0274
     23 H           2.7106    0.9536   -2.1894 H       1  UNL11       0.0274
     24 C           1.2780    0.9485    0.7186 C.2     1  UNL11      -0.0850
     25 H           1.0325    1.6691    1.4948 H       1  UNL11       0.0572
     26 C           0.3924   -0.2604    0.6593 C.3     1  UNL11      -0.0308
     27 H           0.1776   -0.6070    1.6735 H       1  UNL11       0.0310
     28 H           0.8888   -1.0888    0.1521 H       1  UNL11       0.0310
@<TRIPOS>BOND
     1    27    26    1
     2    18    15    1
     3    22    20    1
     4    28    26    1
     5    13    11    1
     6    25    24    1
     7    26    24    1
     8    26     1    1
     9    24    19    2
    10    16    15    1
    11    19    15    1
    12    19    20    1
    13    15    17    1
    14    20    21    1
    15    20    23    1
    16    11    12    1
    17    11     9    1
    18    11    14    1
    19     6     5    1
    20    10     9    1
    21     9     4    2
    22     4     1    1
    23     4     5    1
    24     1     2    1
    25     1     3    1
    26     8     5    1
    27     5     7    1
