@<TRIPOS>MOLECULE
/home/jramos/PycharmProjects/GeCos/examples/01-IsoP_trueno_rdkit_mp2/01-IsoP_g16_conformers/01-IsoP_798_gaussian.xyz
 28 27 0 0 0
SMALL
GASTEIGER

@<TRIPOS>ATOM
      1 C          -0.2710   -1.1089   -0.0374 C.3     1  UNL11      -0.0286
      2 H           0.3185   -1.8723   -0.5531 H       1  UNL11       0.0313
      3 H           0.1131   -1.0649    0.9830 H       1  UNL11       0.0313
      4 C          -1.7274   -1.4990   -0.0640 C.2     1  UNL11      -0.0765
      5 C          -2.1716   -2.2638   -1.2811 C.3     1  UNL11      -0.0438
      6 H          -1.9295   -1.7185   -2.1960 H       1  UNL11       0.0274
      7 H          -1.6616   -3.2276   -1.3415 H       1  UNL11       0.0274
      8 H          -3.2457   -2.4452   -1.2700 H       1  UNL11       0.0274
      9 C          -2.6058   -1.1535    0.8958 C.2     1  UNL11      -0.0881
     10 H          -3.6396   -1.4618    0.7677 H       1  UNL11       0.0569
     11 C          -2.3166   -0.3762    2.1441 C.3     1  UNL11      -0.0466
     12 H          -1.2716   -0.0835    2.2170 H       1  UNL11       0.0272
     13 H          -2.9194    0.5333    2.1796 H       1  UNL11       0.0272
     14 H          -2.5668   -0.9576    3.0335 H       1  UNL11       0.0272
     15 C           3.6145    1.5629   -0.0974 C.3     1  UNL11      -0.0440
     16 H           4.1706    1.2080    0.7733 H       1  UNL11       0.0274
     17 H           3.9901    1.0436   -0.9777 H       1  UNL11       0.0274
     18 H           3.8402    2.6263   -0.2049 H       1  UNL11       0.0274
     19 C           2.1377    1.3453    0.0843 C.2     1  UNL11      -0.0796
     20 C           1.5430    2.0352    1.2808 C.3     1  UNL11      -0.0440
     21 H           0.4818    1.8336    1.4029 H       1  UNL11       0.0274
     22 H           2.0535    1.7151    2.1917 H       1  UNL11       0.0274
     23 H           1.6789    3.1166    1.2065 H       1  UNL11       0.0274
     24 C           1.4383    0.5878   -0.7816 C.2     1  UNL11      -0.0850
     25 H           1.9876    0.1229   -1.5964 H       1  UNL11       0.0572
     26 C          -0.0222    0.2539   -0.7119 C.3     1  UNL11      -0.0308
     27 H          -0.5818    1.0176   -0.1703 H       1  UNL11       0.0310
     28 H          -0.4371    0.2310   -1.7232 H       1  UNL11       0.0310
@<TRIPOS>BOND
     1     7     5    1
     2     6     5    1
     3    25    24    1
     4     2     1    1
     5     5     8    1
     6     5     4    1
     7    17    15    1
     8    28    26    1
     9    24    26    1
    10    24    19    2
    11     1     4    1
    12     1    26    1
    13     1     3    1
    14    15    16    1
    15    15    19    1
    16    15    18    1
    17     4     9    2
    18    26    27    1
    19    19    20    1
    20     9    10    1
    21     9    11    1
    22    20    22    1
    23    20    21    1
    24    20    23    1
    25    12    11    1
    26    11    14    1
    27    11    13    1
