@<TRIPOS>MOLECULE
/home/jramos/PycharmProjects/GeCos/examples/01-IsoP_trueno_rdkit_mp2/01-IsoP_g16_conformers/01-IsoP_523_gaussian.xyz
 28 27 0 0 0
SMALL
GASTEIGER

@<TRIPOS>ATOM
      1 C          -0.6681    0.5862    0.4209 C.3     1  UNL1       -0.0286
      2 H           0.0111    1.4247    0.2437 H       1  UNL1        0.0313
      3 H          -0.7774    0.5052    1.5038 H       1  UNL1        0.0313
      4 C          -1.9918    0.8630   -0.2462 C.2     1  UNL1       -0.0765
      5 C          -1.9144    1.6459   -1.5290 C.3     1  UNL1       -0.0438
      6 H          -1.2441    1.1628   -2.2437 H       1  UNL1        0.0274
      7 H          -2.8927    1.7446   -1.9977 H       1  UNL1        0.0274
      8 H          -1.5175    2.6474   -1.3491 H       1  UNL1        0.0274
      9 C          -3.1719    0.4128    0.2189 C.2     1  UNL1       -0.0881
     10 H          -4.0627    0.6491   -0.3568 H       1  UNL1        0.0569
     11 C          -3.4050   -0.3932    1.4604 C.3     1  UNL1       -0.0466
     12 H          -2.4821   -0.6119    1.9923 H       1  UNL1        0.0272
     13 H          -3.8812   -1.3449    1.2176 H       1  UNL1        0.0272
     14 H          -4.0738    0.1306    2.1460 H       1  UNL1        0.0272
     15 C           3.7870   -0.9438    0.8283 C.3     1  UNL1       -0.0440
     16 H           4.4474   -1.6164    0.2762 H       1  UNL1        0.0274
     17 H           4.3528   -0.0284    1.0159 H       1  UNL1        0.0274
     18 H           3.5549   -1.4047    1.7872 H       1  UNL1        0.0274
     19 C           2.5405   -0.6516    0.0394 C.2     1  UNL1       -0.0796
     20 C           2.7810   -0.0178   -1.3028 C.3     1  UNL1       -0.0440
     21 H           3.3479    0.9082   -1.1848 H       1  UNL1        0.0274
     22 H           1.8615    0.2183   -1.8322 H       1  UNL1        0.0274
     23 H           3.3803   -0.6763   -1.9355 H       1  UNL1        0.0274
     24 C           1.3245   -0.9541    0.5317 C.2     1  UNL1       -0.0850
     25 H           1.2831   -1.3916    1.5262 H       1  UNL1        0.0572
     26 C          -0.0046   -0.6974   -0.1141 C.3     1  UNL1       -0.0308
     27 H           0.0904   -0.6287   -1.1985 H       1  UNL1        0.0310
     28 H          -0.6753   -1.5380    0.0817 H       1  UNL1        0.0310
@<TRIPOS>BOND
     1     6     5    1
     2     7     5    1
     3    23    20    1
     4    22    20    1
     5     5     8    1
     6     5     4    1
     7    20    21    1
     8    20    19    1
     9    27    26    1
    10    10     9    1
    11     4     9    2
    12     4     1    1
    13    26    28    1
    14    26     1    1
    15    26    24    1
    16    19    24    2
    17    19    15    1
    18     9    11    1
    19     2     1    1
    20    16    15    1
    21     1     3    1
    22    24    25    1
    23    15    17    1
    24    15    18    1
    25    13    11    1
    26    11    12    1
    27    11    14    1
