@<TRIPOS>MOLECULE
/home/jramos/PycharmProjects/GeCos/examples/01-IsoP_trueno_rdkit_mp2/01-IsoP_g16_conformers/01-IsoP_556_gaussian.xyz
 28 27 0 0 0
SMALL
GASTEIGER

@<TRIPOS>ATOM
      1 C          -0.7475   -0.0258   -0.6831 C.3     1  UNL1       -0.0286
      2 H          -0.9202    0.8771   -1.2713 H       1  UNL1        0.0313
      3 H          -0.1412   -0.6872   -1.3083 H       1  UNL1        0.0313
      4 C          -2.0444   -0.7126   -0.3363 C.2     1  UNL1       -0.0765
      5 C          -1.9572   -2.2057   -0.1701 C.3     1  UNL1       -0.0438
      6 H          -1.1980   -2.4746    0.5678 H       1  UNL1        0.0274
      7 H          -1.6707   -2.6846   -1.1089 H       1  UNL1        0.0274
      8 H          -2.9072   -2.6288    0.1538 H       1  UNL1        0.0274
      9 C          -3.2044   -0.0609   -0.1329 C.2     1  UNL1       -0.0881
     10 H          -4.0734   -0.6536    0.1390 H       1  UNL1        0.0569
     11 C          -3.4412    1.4151   -0.2377 C.3     1  UNL1       -0.0466
     12 H          -2.5389    1.9623   -0.5002 H       1  UNL1        0.0272
     13 H          -3.8070    1.8143    0.7101 H       1  UNL1        0.0272
     14 H          -4.2010    1.6360   -0.9898 H       1  UNL1        0.0272
     15 C           3.7966    1.2084   -0.2550 C.3     1  UNL1       -0.0440
     16 H           3.5464    2.2490   -0.4562 H       1  UNL1        0.0274
     17 H           4.5534    1.1843    0.5323 H       1  UNL1        0.0274
     18 H           4.2586    0.7875   -1.1509 H       1  UNL1        0.0274
     19 C           2.5830    0.4157    0.1454 C.2     1  UNL1       -0.0796
     20 C           2.8503   -1.0332    0.4455 C.3     1  UNL1       -0.0440
     21 H           1.9496   -1.5893    0.6926 H       1  UNL1        0.0274
     22 H           3.3170   -1.5154   -0.4160 H       1  UNL1        0.0274
     23 H           3.5503   -1.1290    1.2785 H       1  UNL1        0.0274
     24 C           1.3714    0.9981    0.2209 C.2     1  UNL1       -0.0850
     25 H           1.3062    2.0509   -0.0425 H       1  UNL1        0.0572
     26 C           0.0697    0.3405    0.5708 C.3     1  UNL1       -0.0308
     27 H           0.2294   -0.5560    1.1713 H       1  UNL1        0.0310
     28 H          -0.5292    1.0177    1.1853 H       1  UNL1        0.0310
@<TRIPOS>BOND
     1     3     1    1
     2     2     1    1
     3    18    15    1
     4     7     5    1
     5    14    11    1
     6     1     4    1
     7     1    26    1
     8    12    11    1
     9    16    15    1
    10    22    20    1
    11     4     5    1
    12     4     9    2
    13    15    19    1
    14    15    17    1
    15    11     9    1
    16    11    13    1
    17     5     8    1
    18     5     6    1
    19     9    10    1
    20    25    24    1
    21    19    24    2
    22    19    20    1
    23    24    26    1
    24    20    21    1
    25    20    23    1
    26    26    27    1
    27    26    28    1
