@<TRIPOS>MOLECULE
/home/jramos/PycharmProjects/GeCos/examples/01-IsoP_trueno_rdkit_mp2/01-IsoP_g16_conformers/01-IsoP_2527_gaussian.xyz
 28 27 0 0 0
SMALL
GASTEIGER

@<TRIPOS>ATOM
      1 C           0.2502   -0.6403   -1.0201 C.3     1  UNL1       -0.0286
      2 H           0.0071    0.3762   -1.3333 H       1  UNL1        0.0313
      3 H          -0.3923   -1.3028   -1.6073 H       1  UNL1        0.0313
      4 C           1.6953   -0.9732   -1.2942 C.2     1  UNL1       -0.0765
      5 C           1.9820   -2.4194   -1.5937 C.3     1  UNL1       -0.0438
      6 H           1.6101   -3.0657   -0.7955 H       1  UNL1        0.0274
      7 H           1.4828   -2.7317   -2.5135 H       1  UNL1        0.0274
      8 H           3.0501   -2.6010   -1.7055 H       1  UNL1        0.0274
      9 C           2.6901   -0.0688   -1.2290 C.2     1  UNL1       -0.0881
     10 H           3.7017   -0.4176   -1.4176 H       1  UNL1        0.0569
     11 C           2.5611    1.3917   -0.9187 C.3     1  UNL1       -0.0466
     12 H           2.9380    2.0012   -1.7423 H       1  UNL1        0.0272
     13 H           1.5314    1.6851   -0.7276 H       1  UNL1        0.0272
     14 H           3.1495    1.6514   -0.0366 H       1  UNL1        0.0272
     15 C          -3.6471    0.6639    1.2929 C.3     1  UNL1       -0.0440
     16 H          -3.9010    0.9424    2.3182 H       1  UNL1        0.0274
     17 H          -4.1305   -0.2854    1.0673 H       1  UNL1        0.0274
     18 H          -4.0747    1.4297    0.6419 H       1  UNL1        0.0274
     19 C          -2.1561    0.5806    1.1150 C.2     1  UNL1       -0.0796
     20 C          -1.4153    1.8550    1.4116 C.3     1  UNL1       -0.0440
     21 H          -1.7929    2.6644    0.7830 H       1  UNL1        0.0274
     22 H          -1.5760    2.1595    2.4482 H       1  UNL1        0.0274
     23 H          -0.3444    1.7722    1.2438 H       1  UNL1        0.0274
     24 C          -1.5693   -0.5660    0.7231 C.2     1  UNL1       -0.0850
     25 H          -2.2168   -1.4146    0.5173 H       1  UNL1        0.0572
     26 C          -0.1078   -0.7907    0.4709 C.3     1  UNL1       -0.0308
     27 H           0.5084   -0.1003    1.0481 H       1  UNL1        0.0310
     28 H           0.1665   -1.7956    0.8029 H       1  UNL1        0.0310
@<TRIPOS>BOND
     1     7     5    1
     2    12    11    1
     3     8     5    1
     4     3     1    1
     5     5     4    1
     6     5     6    1
     7    10     9    1
     8     2     1    1
     9     4     9    2
    10     4     1    1
    11     9    11    1
    12     1    26    1
    13    11    13    1
    14    11    14    1
    15    26    24    1
    16    26    28    1
    17    26    27    1
    18    25    24    1
    19    18    15    1
    20    24    19    2
    21    21    20    1
    22    17    15    1
    23    19    15    1
    24    19    20    1
    25    23    20    1
    26    15    16    1
    27    20    22    1
