@<TRIPOS>MOLECULE
/home/jramos/PycharmProjects/GeCos/examples/01-IsoP_trueno_rdkit_mp2/01-IsoP_g16_conformers/01-IsoP_1705_gaussian.xyz
 28 27 0 0 0
SMALL
GASTEIGER

@<TRIPOS>ATOM
      1 C          -0.9458    0.0382   -0.0439 C.3     1  UNL11      -0.0286
      2 H          -1.4470    0.8553    0.4778 H       1  UNL11       0.0313
      3 H          -0.7311    0.4044   -1.0517 H       1  UNL11       0.0313
      4 C          -1.8277   -1.1818   -0.1306 C.2     1  UNL11      -0.0765
      5 C          -1.5936   -2.0609   -1.3292 C.3     1  UNL11      -0.0438
      6 H          -1.8246   -1.5266   -2.2534 H       1  UNL11       0.0274
      7 H          -0.5469   -2.3670   -1.3930 H       1  UNL11       0.0274
      8 H          -2.2064   -2.9606   -1.2919 H       1  UNL11       0.0274
      9 C          -2.7341   -1.5171    0.8063 C.2     1  UNL11      -0.0881
     10 H          -3.2977   -2.4338    0.6557 H       1  UNL11       0.0569
     11 C          -3.0615   -0.7604    2.0576 C.3     1  UNL11      -0.0466
     12 H          -2.4625    0.1407    2.1661 H       1  UNL11       0.0272
     13 H          -2.8892   -1.3811    2.9389 H       1  UNL11       0.0272
     14 H          -4.1139   -0.4705    2.0743 H       1  UNL11       0.0272
     15 C           3.0704    2.5313    0.0594 C.3     1  UNL11      -0.0440
     16 H           2.7017    3.1150    0.9015 H       1  UNL11       0.0274
     17 H           4.1293    2.3212    0.2259 H       1  UNL11       0.0274
     18 H           3.0080    3.1489   -0.8394 H       1  UNL11       0.0274
     19 C           2.2926    1.2556   -0.1116 C.2     1  UNL11      -0.0796
     20 C           2.7479    0.3909   -1.2542 C.3     1  UNL11      -0.0440
     21 H           3.7864    0.0836   -1.1120 H       1  UNL11       0.0274
     22 H           2.1426   -0.5035   -1.3780 H       1  UNL11       0.0274
     23 H           2.7106    0.9536   -2.1894 H       1  UNL11       0.0274
     24 C           1.2781    0.9485    0.7186 C.2     1  UNL11      -0.0850
     25 H           1.0325    1.6690    1.4948 H       1  UNL11       0.0572
     26 C           0.3924   -0.2604    0.6593 C.3     1  UNL11      -0.0308
     27 H           0.1776   -0.6072    1.6735 H       1  UNL11       0.0310
     28 H           0.8888   -1.0887    0.1521 H       1  UNL11       0.0310
@<TRIPOS>BOND
     1     7     5    1
     2    21    20    1
     3     8     5    1
     4    22    20    1
     5    28    26    1
     6     5     6    1
     7     5     4    1
     8    20    23    1
     9    20    19    1
    10    27    26    1
    11    10     9    1
    12    26    24    1
    13    26     1    1
    14     4     9    2
    15     4     1    1
    16     9    11    1
    17    19    24    2
    18    19    15    1
    19    17    15    1
    20    13    11    1
    21    24    25    1
    22     1     3    1
    23     1     2    1
    24    15    18    1
    25    15    16    1
    26    11    12    1
    27    11    14    1
