@<TRIPOS>MOLECULE
/home/jramos/PycharmProjects/GeCos/examples/01-IsoP_trueno_rdkit_mp2/01-IsoP_g16_conformers/01-IsoP_2976_gaussian.xyz
 28 27 0 0 0
SMALL
GASTEIGER

@<TRIPOS>ATOM
      1 C          -0.9458    0.0383   -0.0439 C.3     1  UNL11      -0.0286
      2 H          -0.7312    0.4045   -1.0516 H       1  UNL11       0.0313
      3 H          -1.4469    0.8554    0.4778 H       1  UNL11       0.0313
      4 C          -1.8277   -1.1818   -0.1305 C.2     1  UNL11      -0.0765
      5 C          -1.5936   -2.0609   -1.3293 C.3     1  UNL11      -0.0438
      6 H          -1.8246   -1.5265   -2.2534 H       1  UNL11       0.0274
      7 H          -2.2065   -2.9606   -1.2920 H       1  UNL11       0.0274
      8 H          -0.5470   -2.3669   -1.3930 H       1  UNL11       0.0274
      9 C          -2.7340   -1.5171    0.8063 C.2     1  UNL11      -0.0881
     10 H          -3.2977   -2.4338    0.6556 H       1  UNL11       0.0569
     11 C          -3.0615   -0.7605    2.0576 C.3     1  UNL11      -0.0466
     12 H          -2.8891   -1.3811    2.9389 H       1  UNL11       0.0272
     13 H          -4.1138   -0.4705    2.0744 H       1  UNL11       0.0272
     14 H          -2.4625    0.1407    2.1661 H       1  UNL11       0.0272
     15 C           3.0704    2.5313    0.0594 C.3     1  UNL11      -0.0440
     16 H           3.0079    3.1490   -0.8394 H       1  UNL11       0.0274
     17 H           4.1294    2.3211    0.2259 H       1  UNL11       0.0274
     18 H           2.7017    3.1148    0.9016 H       1  UNL11       0.0274
     19 C           2.2926    1.2556   -0.1116 C.2     1  UNL11      -0.0796
     20 C           2.7479    0.3909   -1.2543 C.3     1  UNL11      -0.0440
     21 H           2.7106    0.9538   -2.1894 H       1  UNL11       0.0274
     22 H           2.1425   -0.5034   -1.3781 H       1  UNL11       0.0274
     23 H           3.7864    0.0837   -1.1120 H       1  UNL11       0.0274
     24 C           1.2781    0.9484    0.7186 C.2     1  UNL11      -0.0850
     25 H           1.0325    1.6690    1.4949 H       1  UNL11       0.0572
     26 C           0.3924   -0.2604    0.6593 C.3     1  UNL11      -0.0308
     27 H           0.8888   -1.0888    0.1521 H       1  UNL11       0.0310
     28 H           0.1776   -0.6072    1.6734 H       1  UNL11       0.0310
@<TRIPOS>BOND
     1    12    11    1
     2    14    11    1
     3    13    11    1
     4    11     9    1
     5    25    24    1
     6    18    15    1
     7    28    26    1
     8    24    26    1
     9    24    19    2
    10     3     1    1
    11    17    15    1
    12    15    19    1
    13    15    16    1
    14    26     1    1
    15    26    27    1
    16     9    10    1
    17     9     4    2
    18    19    20    1
    19     1     4    1
    20     1     2    1
    21     4     5    1
    22    23    20    1
    23    20    22    1
    24    20    21    1
    25     5     7    1
    26     5     8    1
    27     5     6    1
