@<TRIPOS>MOLECULE
/home/jramos/PycharmProjects/GeCos/examples/01-IsoP_trueno_rdkit_mp2/01-IsoP_g16_conformers/01-IsoP_497_gaussian.xyz
 28 27 0 0 0
SMALL
GASTEIGER

@<TRIPOS>ATOM
      1 C           0.8326    0.4250    0.6176 C.3     1  UNL1       -0.0286
      2 H           0.7663    1.1852    1.4012 H       1  UNL1        0.0313
      3 H           0.8589    0.9656   -0.3299 H       1  UNL1        0.0313
      4 C           2.0813   -0.3956    0.8212 C.2     1  UNL1       -0.0765
      5 C           2.5072   -0.5839    2.2518 C.3     1  UNL1       -0.0438
      6 H           3.3680   -1.2469    2.3293 H       1  UNL1        0.0274
      7 H           1.6973   -1.0090    2.8487 H       1  UNL1        0.0274
      8 H           2.7692    0.3732    2.7081 H       1  UNL1        0.0274
      9 C           2.7589   -0.9777   -0.1857 C.2     1  UNL1       -0.0881
     10 H           3.6318   -1.5716    0.0711 H       1  UNL1        0.0569
     11 C           2.4411   -0.9010   -1.6483 C.3     1  UNL1       -0.0466
     12 H           2.2706   -1.8984   -2.0581 H       1  UNL1        0.0272
     13 H           1.5537   -0.3049   -1.8486 H       1  UNL1        0.0272
     14 H           3.2724   -0.4663   -2.2067 H       1  UNL1        0.0272
     15 C          -2.0628    0.1460   -1.9226 C.3     1  UNL1       -0.0440
     16 H          -1.1629   -0.4636   -1.9374 H       1  UNL1        0.0274
     17 H          -2.8881   -0.4538   -2.3129 H       1  UNL1        0.0274
     18 H          -1.9190    0.9754   -2.6185 H       1  UNL1        0.0274
     19 C          -2.3937    0.6709   -0.5530 C.2     1  UNL1       -0.0796
     20 C          -3.6085    1.5554   -0.4951 C.3     1  UNL1       -0.0440
     21 H          -3.8017    1.9040    0.5183 H       1  UNL1        0.0274
     22 H          -3.4859    2.4283   -1.1402 H       1  UNL1        0.0274
     23 H          -4.4942    1.0226   -0.8486 H       1  UNL1        0.0274
     24 C          -1.6874    0.3923    0.5589 C.2     1  UNL1       -0.0850
     25 H          -2.0151    0.8515    1.4881 H       1  UNL1        0.0572
     26 C          -0.4424   -0.4392    0.6516 C.3     1  UNL1       -0.0308
     27 H          -0.4586   -1.0127    1.5822 H       1  UNL1        0.0310
     28 H          -0.3889   -1.1704   -0.1560 H       1  UNL1        0.0310
@<TRIPOS>BOND
     1    18    15    1
     2    17    15    1
     3    14    11    1
     4    12    11    1
     5    16    15    1
     6    15    19    1
     7    13    11    1
     8    11     9    1
     9    22    20    1
    10    23    20    1
    11    19    20    1
    12    19    24    2
    13    20    21    1
    14     3     1    1
    15     9    10    1
    16     9     4    2
    17    28    26    1
    18    24    26    1
    19    24    25    1
    20     1    26    1
    21     1     4    1
    22     1     2    1
    23    26    27    1
    24     4     5    1
    25     5     6    1
    26     5     8    1
    27     5     7    1
