@<TRIPOS>MOLECULE
/home/jramos/PycharmProjects/GeCos/examples/01-IsoP_trueno_rdkit_mp2/01-IsoP_g16_conformers/01-IsoP_1555_gaussian.xyz
 28 27 0 0 0
SMALL
GASTEIGER

@<TRIPOS>ATOM
      1 C          -0.9389    0.1010    0.8709 C.3     1  UNL1       -0.0286
      2 H          -1.0030    0.3572    1.9323 H       1  UNL1        0.0313
      3 H          -0.6411   -0.9478    0.8281 H       1  UNL1        0.0313
      4 C          -2.2817    0.3218    0.2211 C.2     1  UNL1       -0.0765
      5 C          -3.1032    1.4438    0.7954 C.3     1  UNL1       -0.0438
      6 H          -2.5433    2.3817    0.7897 H       1  UNL1        0.0274
      7 H          -4.0228    1.5959    0.2318 H       1  UNL1        0.0274
      8 H          -3.3679    1.2386    1.8349 H       1  UNL1        0.0274
      9 C          -2.7192   -0.3857   -0.8372 C.2     1  UNL1       -0.0881
     10 H          -3.6917   -0.1288   -1.2481 H       1  UNL1        0.0569
     11 C          -2.0051   -1.5075   -1.5283 C.3     1  UNL1       -0.0466
     12 H          -2.5948   -2.4256   -1.4951 H       1  UNL1        0.0272
     13 H          -1.8451   -1.2709   -2.5819 H       1  UNL1        0.0272
     14 H          -1.0340   -1.7158   -1.0849 H       1  UNL1        0.0272
     15 C           3.7368   -0.0719    1.4604 C.3     1  UNL1       -0.0440
     16 H           3.6830    0.6192    2.3002 H       1  UNL1        0.0274
     17 H           4.6176    0.1800    0.8655 H       1  UNL1        0.0274
     18 H           3.8979   -1.0780    1.8542 H       1  UNL1        0.0274
     19 C           2.4908   -0.0182    0.6202 C.2     1  UNL1       -0.0796
     20 C           2.4905   -0.9449   -0.5640 C.3     1  UNL1       -0.0440
     21 H           2.6404   -1.9754   -0.2349 H       1  UNL1        0.0274
     22 H           1.5650   -0.9062   -1.1330 H       1  UNL1        0.0274
     23 H           3.3161   -0.7057   -1.2381 H       1  UNL1        0.0274
     24 C           1.4788    0.8118    0.9359 C.2     1  UNL1       -0.0850
     25 H           1.5894    1.4176    1.8318 H       1  UNL1        0.0572
     26 C           0.1688    0.9503    0.2185 C.3     1  UNL1       -0.0308
     27 H          -0.1379    1.9996    0.2241 H       1  UNL1        0.0310
     28 H           0.2549    0.6636   -0.8303 H       1  UNL1        0.0310
@<TRIPOS>BOND
     1    13    11    1
     2    11    12    1
     3    11    14    1
     4    11     9    1
     5    10     9    1
     6    23    20    1
     7    22    20    1
     8     9     4    2
     9    28    26    1
    10    20    21    1
    11    20    19    1
    12    26    27    1
    13    26     1    1
    14    26    24    1
    15     4     5    1
    16     4     1    1
    17     7     5    1
    18    19    24    2
    19    19    15    1
    20     6     5    1
    21     5     8    1
    22     3     1    1
    23    17    15    1
    24     1     2    1
    25    24    25    1
    26    15    18    1
    27    15    16    1
