@<TRIPOS>MOLECULE
/home/jramos/PycharmProjects/GeCos/examples/01-IsoP_trueno_rdkit_mp2/01-IsoP_g16_conformers/01-IsoP_2667_gaussian.xyz
 28 27 0 0 0
SMALL
GASTEIGER

@<TRIPOS>ATOM
      1 C          -0.5740    0.0645   -1.0176 C.3     1  UNL1       -0.0286
      2 H          -0.2026   -0.9527   -0.8836 H       1  UNL1        0.0313
      3 H          -0.2223    0.3911   -2.0005 H       1  UNL1        0.0313
      4 C          -2.0809    0.1124   -0.9844 C.2     1  UNL1       -0.0765
      5 C          -2.7138    1.1930   -1.8181 C.3     1  UNL1       -0.0438
      6 H          -2.3177    2.1755   -1.5518 H       1  UNL1        0.0274
      7 H          -3.7949    1.2179   -1.6877 H       1  UNL1        0.0274
      8 H          -2.4995    1.0412   -2.8782 H       1  UNL1        0.0274
      9 C          -2.8327   -0.7083   -0.2273 C.2     1  UNL1       -0.0881
     10 H          -3.9104   -0.5730   -0.2546 H       1  UNL1        0.0569
     11 C          -2.3451   -1.8073    0.6674 C.3     1  UNL1       -0.0466
     12 H          -2.7590   -2.7709    0.3643 H       1  UNL1        0.0272
     13 H          -2.6634   -1.6350    1.6974 H       1  UNL1        0.0272
     14 H          -1.2608   -1.8920    0.6661 H       1  UNL1        0.0272
     15 C           2.0501   -0.7634    1.6921 C.3     1  UNL1       -0.0440
     16 H           2.4395   -1.7488    1.4272 H       1  UNL1        0.0274
     17 H           2.4897   -0.4994    2.6566 H       1  UNL1        0.0274
     18 H           0.9744   -0.8521    1.8217 H       1  UNL1        0.0274
     19 C           2.4340    0.2438    0.6438 C.2     1  UNL1       -0.0796
     20 C           3.9130    0.3671    0.4018 C.3     1  UNL1       -0.0440
     21 H           4.4339    0.6547    1.3179 H       1  UNL1        0.0274
     22 H           4.1327    1.1101   -0.3633 H       1  UNL1        0.0274
     23 H           4.3366   -0.5882    0.0836 H       1  UNL1        0.0274
     24 C           1.5554    0.9980   -0.0434 C.2     1  UNL1       -0.0850
     25 H           1.9565    1.6755   -0.7929 H       1  UNL1        0.0572
     26 C           0.0597    0.9620    0.0626 C.3     1  UNL1       -0.0308
     27 H          -0.2634    0.6082    1.0424 H       1  UNL1        0.0310
     28 H          -0.3351    1.9762   -0.0413 H       1  UNL1        0.0310
@<TRIPOS>BOND
     1     8     5    1
     2     3     1    1
     3     5     7    1
     4     5     6    1
     5     5     4    1
     6     1     4    1
     7     1     2    1
     8     1    26    1
     9     4     9    2
    10    25    24    1
    11    22    20    1
    12    10     9    1
    13     9    11    1
    14    24    26    1
    15    24    19    2
    16    28    26    1
    17    26    27    1
    18    23    20    1
    19    12    11    1
    20    20    19    1
    21    20    21    1
    22    19    15    1
    23    14    11    1
    24    11    13    1
    25    16    15    1
    26    15    18    1
    27    15    17    1
