@<TRIPOS>MOLECULE
/home/jramos/PycharmProjects/GeCos/examples/01-IsoP_trueno_rdkit_mp2/01-IsoP_g16_conformers/01-IsoP_3170_gaussian.xyz
 28 27 0 0 0
SMALL
GASTEIGER

@<TRIPOS>ATOM
      1 C          -0.9450   -0.1214   -0.4549 C.3     1  UNL11      -0.0286
      2 H          -1.1421    0.2679   -1.4580 H       1  UNL11       0.0313
      3 H          -1.1000    0.7126    0.2314 H       1  UNL11       0.0313
      4 C          -1.8909   -1.2595   -0.1652 C.2     1  UNL11      -0.0765
      5 C          -2.2912   -2.0886   -1.3552 C.3     1  UNL11      -0.0438
      6 H          -1.4127   -2.4760   -1.8759 H       1  UNL11       0.0274
      7 H          -2.8488   -1.4879   -2.0770 H       1  UNL11       0.0274
      8 H          -2.9114   -2.9351   -1.0630 H       1  UNL11       0.0274
      9 C          -2.3216   -1.5697    1.0718 C.2     1  UNL11      -0.0881
     10 H          -2.9809   -2.4271    1.1757 H       1  UNL11       0.0569
     11 C          -1.9891   -0.8560    2.3469 C.3     1  UNL11      -0.0466
     12 H          -1.3188   -0.0144    2.1878 H       1  UNL11       0.0272
     13 H          -2.8924   -0.4806    2.8318 H       1  UNL11       0.0272
     14 H          -1.5081   -1.5346    3.0538 H       1  UNL11       0.0272
     15 C           1.9886    1.3822    1.5568 C.3     1  UNL11      -0.0440
     16 H           1.3183    0.6078    1.9211 H       1  UNL11       0.0274
     17 H           1.6245    2.3435    1.9259 H       1  UNL11       0.0274
     18 H           2.9711    1.2230    2.0070 H       1  UNL11       0.0274
     19 C           2.0936    1.4099    0.0571 C.2     1  UNL11      -0.0796
     20 C           2.9783    2.4951   -0.4915 C.3     1  UNL11      -0.0440
     21 H           3.0190    2.4665   -1.5793 H       1  UNL11       0.0274
     22 H           2.6192    3.4811   -0.1878 H       1  UNL11       0.0274
     23 H           3.9966    2.3972   -0.1081 H       1  UNL11       0.0274
     24 C           1.4656    0.5480   -0.7648 C.2     1  UNL11      -0.0850
     25 H           1.6038    0.6855   -1.8342 H       1  UNL11       0.0572
     26 C           0.5306   -0.5563   -0.3694 C.3     1  UNL11      -0.0308
     27 H           0.7318   -0.9074    0.6435 H       1  UNL11       0.0310
     28 H           0.6867   -1.4156   -1.0271 H       1  UNL11       0.0310
@<TRIPOS>BOND
     1    14    11    1
     2    13    11    1
     3    18    15    1
     4    11    12    1
     5    11     9    1
     6    16    15    1
     7    17    15    1
     8    15    19    1
     9    10     9    1
    10     9     4    2
    11    27    26    1
    12    23    20    1
    13    19    20    1
    14    19    24    2
    15     3     1    1
    16    22    20    1
    17    26     1    1
    18    26    24    1
    19    26    28    1
    20     4     1    1
    21     4     5    1
    22    20    21    1
    23     1     2    1
    24    24    25    1
    25     8     5    1
    26     5     6    1
    27     5     7    1
