@<TRIPOS>MOLECULE
/home/jramos/PycharmProjects/GeCos/examples/01-IsoP_trueno_rdkit_mp2/01-IsoP_g16_conformers/01-IsoP_2655_gaussian.xyz
 28 27 0 0 0
SMALL
GASTEIGER

@<TRIPOS>ATOM
      1 C          -0.8177   -0.2659   -0.5876 C.3     1  UNL11      -0.0286
      2 H          -0.7965   -0.1532   -1.6754 H       1  UNL11       0.0313
      3 H          -1.0455    0.7215   -0.1833 H       1  UNL11       0.0313
      4 C          -1.8725   -1.2755   -0.2100 C.2     1  UNL11      -0.0765
      5 C          -2.0935   -2.3844   -1.2023 C.3     1  UNL11      -0.0438
      6 H          -2.4649   -1.9889   -2.1502 H       1  UNL11       0.0274
      7 H          -1.1592   -2.9064   -1.4205 H       1  UNL11       0.0274
      8 H          -2.8107   -3.1159   -0.8321 H       1  UNL11       0.0274
      9 C          -2.5481   -1.2423    0.9538 C.2     1  UNL11      -0.0881
     10 H          -3.2689   -2.0335    1.1409 H       1  UNL11       0.0569
     11 C          -2.4171   -0.2213    2.0429 C.3     1  UNL11      -0.0466
     12 H          -2.1227   -0.6948    2.9814 H       1  UNL11       0.0272
     13 H          -1.6760    0.5401    1.8099 H       1  UNL11       0.0272
     14 H          -3.3695    0.2801    2.2254 H       1  UNL11       0.0272
     15 C           3.2019    2.1990   -0.5127 C.3     1  UNL11      -0.0440
     16 H           2.8561    3.2345   -0.5499 H       1  UNL11       0.0274
     17 H           3.4454    1.8835   -1.5261 H       1  UNL11       0.0274
     18 H           4.1210    2.1933    0.0777 H       1  UNL11       0.0274
     19 C           2.1616    1.3083    0.1085 C.2     1  UNL11      -0.0796
     20 C           1.7738    1.6793    1.5131 C.3     1  UNL11      -0.0440
     21 H           1.4092    2.7083    1.5432 H       1  UNL11       0.0274
     22 H           0.9985    1.0370    1.9230 H       1  UNL11       0.0274
     23 H           2.6414    1.6325    2.1753 H       1  UNL11       0.0274
     24 C           1.6460    0.2677   -0.5726 C.2     1  UNL11      -0.0850
     25 H           1.9920    0.1160   -1.5919 H       1  UNL11       0.0572
     26 C           0.5842   -0.6812   -0.1015 C.3     1  UNL11      -0.0308
     27 H           0.5676   -0.7545    0.9866 H       1  UNL11       0.0310
     28 H           0.8060   -1.6856   -0.4720 H       1  UNL11       0.0310
@<TRIPOS>BOND
     1    14    11    1
     2    21    20    1
     3    13    11    1
     4    12    11    1
     5    23    20    1
     6    11     9    1
     7    22    20    1
     8    20    19    1
     9    16    15    1
    10     3     1    1
    11    18    15    1
    12     9    10    1
    13     9     4    2
    14    19    15    1
    15    19    24    2
    16    15    17    1
    17    27    26    1
    18     1     4    1
    19     1    26    1
    20     1     2    1
    21     4     5    1
    22    24    26    1
    23    24    25    1
    24    26    28    1
    25     5     8    1
    26     5     6    1
    27     5     7    1
