@<TRIPOS>MOLECULE
/home/jramos/PycharmProjects/GeCos/examples/01-IsoP_trueno_rdkit_mp2/01-IsoP_g16_conformers/01-IsoP_3829_gaussian.xyz
 28 27 0 0 0
SMALL
GASTEIGER

@<TRIPOS>ATOM
      1 C          -0.7068    0.8879    0.2849 C.3     1  UNL1       -0.0286
      2 H          -0.5216    0.9127   -0.7901 H       1  UNL1        0.0313
      3 H          -0.4615    1.8856    0.6602 H       1  UNL1        0.0313
      4 C          -2.1510    0.5797    0.5907 C.2     1  UNL1       -0.0765
      5 C          -2.6896    1.1877    1.8570 C.3     1  UNL1       -0.0438
      6 H          -3.7105    0.8630    2.0544 H       1  UNL1        0.0274
      7 H          -2.0742    0.9120    2.7163 H       1  UNL1        0.0274
      8 H          -2.6819    2.2783    1.7979 H       1  UNL1        0.0274
      9 C          -2.9150   -0.2255   -0.1707 C.2     1  UNL1       -0.0881
     10 H          -3.9367   -0.4048    0.1528 H       1  UNL1        0.0569
     11 C          -2.5108   -0.9179   -1.4369 C.3     1  UNL1       -0.0466
     12 H          -2.6201   -1.9994   -1.3361 H       1  UNL1        0.0272
     13 H          -3.1457   -0.6110   -2.2702 H       1  UNL1        0.0272
     14 H          -1.4776   -0.7138   -1.7088 H       1  UNL1        0.0272
     15 C           2.1096   -1.2215   -1.3063 C.3     1  UNL1       -0.0440
     16 H           2.2543   -0.8054   -2.3056 H       1  UNL1        0.0274
     17 H           2.7410   -2.1104   -1.2402 H       1  UNL1        0.0274
     18 H           1.0720   -1.5345   -1.2207 H       1  UNL1        0.0274
     19 C           2.5066   -0.2136   -0.2635 C.2     1  UNL1       -0.0796
     20 C           3.9232    0.2791   -0.3722 C.3     1  UNL1       -0.0440
     21 H           4.1559    1.0031    0.4071 H       1  UNL1        0.0274
     22 H           4.0981    0.7509   -1.3418 H       1  UNL1        0.0274
     23 H           4.6301   -0.5498   -0.2916 H       1  UNL1        0.0274
     24 C           1.6909    0.2352    0.7091 C.2     1  UNL1       -0.0850
     25 H           2.0891    0.9824    1.3910 H       1  UNL1        0.0572
     26 C           0.2530   -0.1349    0.9224 C.3     1  UNL1       -0.0308
     27 H           0.0494   -0.1932    1.9949 H       1  UNL1        0.0310
     28 H           0.0297   -1.1221    0.5158 H       1  UNL1        0.0310
@<TRIPOS>BOND
     1    16    15    1
     2    13    11    1
     3    14    11    1
     4    11    12    1
     5    11     9    1
     6    22    20    1
     7    15    17    1
     8    15    18    1
     9    15    19    1
    10     2     1    1
    11    20    23    1
    12    20    19    1
    13    20    21    1
    14    19    24    2
    15     9    10    1
    16     9     4    2
    17     1     4    1
    18     1     3    1
    19     1    26    1
    20    28    26    1
    21     4     5    1
    22    24    26    1
    23    24    25    1
    24    26    27    1
    25     8     5    1
    26     5     6    1
    27     5     7    1
