@<TRIPOS>MOLECULE
/home/jramos/PycharmProjects/GeCos/examples/01-IsoP_trueno_rdkit_mp2/01-IsoP_g16_conformers/01-IsoP_3226_gaussian.xyz
 28 27 0 0 0
SMALL
GASTEIGER

@<TRIPOS>ATOM
      1 C           0.7422   -0.2309   -0.6025 C.3     1  UNL1       -0.0286
      2 H           0.8799   -1.2903   -0.8257 H       1  UNL1        0.0313
      3 H           0.1523    0.1812   -1.4259 H       1  UNL1        0.0313
      4 C           2.0639    0.4904   -0.5219 C.2     1  UNL1       -0.0765
      5 C           2.0271    1.9453   -0.9045 C.3     1  UNL1       -0.0438
      6 H           1.7480    2.0637   -1.9537 H       1  UNL1        0.0274
      7 H           1.2837    2.4872   -0.3154 H       1  UNL1        0.0274
      8 H           2.9934    2.4243   -0.7513 H       1  UNL1        0.0274
      9 C           3.2037   -0.0832   -0.0935 C.2     1  UNL1       -0.0881
     10 H           4.0941    0.5380   -0.0502 H       1  UNL1        0.0569
     11 C           3.3912   -1.5051    0.3408 C.3     1  UNL1       -0.0466
     12 H           3.7523   -1.5487    1.3699 H       1  UNL1        0.0272
     13 H           4.1365   -2.0074   -0.2788 H       1  UNL1        0.0272
     14 H           2.4691   -2.0793    0.2897 H       1  UNL1        0.0272
     15 C          -2.8104    1.2359    0.0756 C.3     1  UNL1       -0.0440
     16 H          -3.4995    1.6486    0.8159 H       1  UNL1        0.0274
     17 H          -3.2688    1.3913   -0.9033 H       1  UNL1        0.0274
     18 H          -1.8898    1.8129    0.1090 H       1  UNL1        0.0274
     19 C          -2.5934   -0.2321    0.3180 C.2     1  UNL1       -0.0796
     20 C          -3.8358   -1.0743    0.2257 C.3     1  UNL1       -0.0440
     21 H          -4.5843   -0.7430    0.9490 H       1  UNL1        0.0274
     22 H          -4.2918   -0.9886   -0.7632 H       1  UNL1        0.0274
     23 H          -3.6217   -2.1254    0.4134 H       1  UNL1        0.0274
     24 C          -1.4009   -0.7888    0.6022 C.2     1  UNL1       -0.0850
     25 H          -1.3725   -1.8674    0.7356 H       1  UNL1        0.0572
     26 C          -0.0753   -0.0937    0.6964 C.3     1  UNL1       -0.0308
     27 H          -0.2002    0.9637    0.9334 H       1  UNL1        0.0310
     28 H           0.5066   -0.5242    1.5155 H       1  UNL1        0.0310
@<TRIPOS>BOND
     1     6     5    1
     2     3     1    1
     3     5     8    1
     4     5     4    1
     5     5     7    1
     6    17    15    1
     7     2     1    1
     8    22    20    1
     9     1     4    1
    10     1    26    1
    11     4     9    2
    12    13    11    1
    13     9    10    1
    14     9    11    1
    15    15    18    1
    16    15    19    1
    17    15    16    1
    18    20    19    1
    19    20    23    1
    20    20    21    1
    21    14    11    1
    22    19    24    2
    23    11    12    1
    24    24    26    1
    25    24    25    1
    26    26    27    1
    27    26    28    1
