@<TRIPOS>MOLECULE
/home/jramos/PycharmProjects/GeCos/examples/01-IsoP_trueno_rdkit_mp2/01-IsoP_g16_conformers/01-IsoP_1569_gaussian.xyz
 28 27 0 0 0
SMALL
GASTEIGER

@<TRIPOS>ATOM
      1 C          -0.8777    0.0889   -0.7687 C.3     1  UNL1       -0.0286
      2 H          -0.9029   -0.9029   -0.3147 H       1  UNL1        0.0313
      3 H          -0.8796   -0.0705   -1.8509 H       1  UNL1        0.0313
      4 C          -2.0847    0.9057   -0.3814 C.2     1  UNL1       -0.0765
      5 C          -2.5462    1.9064   -1.4056 C.3     1  UNL1       -0.0438
      6 H          -1.7339    2.5792   -1.6894 H       1  UNL1        0.0274
      7 H          -2.8760    1.4045   -2.3178 H       1  UNL1        0.0274
      8 H          -3.3708    2.5116   -1.0309 H       1  UNL1        0.0274
      9 C          -2.6954    0.8060    0.8141 C.2     1  UNL1       -0.0881
     10 H          -3.5417    1.4603    1.0039 H       1  UNL1        0.0569
     11 C          -2.3345   -0.1202    1.9356 C.3     1  UNL1       -0.0466
     12 H          -3.1699   -0.7776    2.1839 H       1  UNL1        0.0272
     13 H          -2.0953    0.4440    2.8391 H       1  UNL1        0.0272
     14 H          -1.4756   -0.7436    1.6978 H       1  UNL1        0.0272
     15 C           2.1106   -1.2464    1.2808 C.3     1  UNL1       -0.0440
     16 H           1.9438   -2.3221    1.3696 H       1  UNL1        0.0274
     17 H           2.9804   -1.0101    1.8979 H       1  UNL1        0.0274
     18 H           1.2470   -0.7376    1.7015 H       1  UNL1        0.0274
     19 C           2.3666   -0.8792   -0.1547 C.2     1  UNL1       -0.0796
     20 C           3.5277   -1.5938   -0.7892 C.3     1  UNL1       -0.0440
     21 H           3.6678   -1.2884   -1.8250 H       1  UNL1        0.0274
     22 H           4.4528   -1.3918   -0.2446 H       1  UNL1        0.0274
     23 H           3.3779   -2.6756   -0.7681 H       1  UNL1        0.0274
     24 C           1.6408    0.0156   -0.8513 C.2     1  UNL1       -0.0850
     25 H           1.9118    0.1785   -1.8914 H       1  UNL1        0.0572
     26 C           0.4418    0.7762   -0.3679 C.3     1  UNL1       -0.0308
     27 H           0.4556    0.8977    0.7159 H       1  UNL1        0.0310
     28 H           0.4593    1.7851   -0.7886 H       1  UNL1        0.0310
@<TRIPOS>BOND
     1     7     5    1
     2    25    24    1
     3     3     1    1
     4    21    20    1
     5     6     5    1
     6     5     8    1
     7     5     4    1
     8    24    26    1
     9    24    19    2
    10    20    23    1
    11    20    22    1
    12    20    19    1
    13    28    26    1
    14     1     4    1
    15     1    26    1
    16     1     2    1
    17     4     9    2
    18    26    27    1
    19    19    15    1
    20     9    10    1
    21     9    11    1
    22    15    16    1
    23    15    18    1
    24    15    17    1
    25    14    11    1
    26    11    12    1
    27    11    13    1
