@<TRIPOS>MOLECULE
/home/jramos/PycharmProjects/GeCos/examples/01-IsoP_trueno_rdkit_mp2/01-IsoP_g16_conformers/01-IsoP_334_gaussian.xyz
 28 27 0 0 0
SMALL
GASTEIGER

@<TRIPOS>ATOM
      1 C          -0.2711   -1.1089   -0.0374 C.3     1  UNL11      -0.0286
      2 H           0.1131   -1.0650    0.9829 H       1  UNL11       0.0313
      3 H           0.3185   -1.8723   -0.5531 H       1  UNL11       0.0313
      4 C          -1.7274   -1.4991   -0.0640 C.2     1  UNL11      -0.0765
      5 C          -2.1716   -2.2638   -1.2811 C.3     1  UNL11      -0.0438
      6 H          -3.2457   -2.4452   -1.2701 H       1  UNL11       0.0274
      7 H          -1.6615   -3.2275   -1.3416 H       1  UNL11       0.0274
      8 H          -1.9296   -1.7185   -2.1961 H       1  UNL11       0.0274
      9 C          -2.6058   -1.1535    0.8958 C.2     1  UNL11      -0.0881
     10 H          -3.6397   -1.4618    0.7676 H       1  UNL11       0.0569
     11 C          -2.3166   -0.3762    2.1441 C.3     1  UNL11      -0.0466
     12 H          -2.9193    0.5333    2.1796 H       1  UNL11       0.0272
     13 H          -2.5668   -0.9576    3.0335 H       1  UNL11       0.0272
     14 H          -1.2716   -0.0836    2.2170 H       1  UNL11       0.0272
     15 C           3.6145    1.5629   -0.0974 C.3     1  UNL11      -0.0440
     16 H           3.9900    1.0435   -0.9777 H       1  UNL11       0.0274
     17 H           3.8403    2.6263   -0.2049 H       1  UNL11       0.0274
     18 H           4.1706    1.2079    0.7732 H       1  UNL11       0.0274
     19 C           2.1377    1.3453    0.0843 C.2     1  UNL11      -0.0796
     20 C           1.5430    2.0352    1.2808 C.3     1  UNL11      -0.0440
     21 H           1.6789    3.1166    1.2064 H       1  UNL11       0.0274
     22 H           0.4818    1.8336    1.4029 H       1  UNL11       0.0274
     23 H           2.0535    1.7151    2.1916 H       1  UNL11       0.0274
     24 C           1.4383    0.5878   -0.7816 C.2     1  UNL11      -0.0850
     25 H           1.9877    0.1228   -1.5964 H       1  UNL11       0.0572
     26 C          -0.0223    0.2539   -0.7119 C.3     1  UNL11      -0.0308
     27 H          -0.5818    1.0176   -0.1703 H       1  UNL11       0.0310
     28 H          -0.4371    0.2310   -1.7232 H       1  UNL11       0.0310
@<TRIPOS>BOND
     1     8     5    1
     2    28    26    1
     3     6     5    1
     4    27    26    1
     5    10     9    1
     6     5     4    1
     7     5     7    1
     8    12    11    1
     9    26    24    1
    10    26     1    1
    11     9     4    2
    12     9    11    1
    13     4     1    1
    14    24    25    1
    15    24    19    2
    16    21    20    1
    17    11    14    1
    18    11    13    1
    19    22    20    1
    20     1     3    1
    21     1     2    1
    22    19    20    1
    23    19    15    1
    24    20    23    1
    25    17    15    1
    26    16    15    1
    27    15    18    1
