@<TRIPOS>MOLECULE
/home/jramos/PycharmProjects/GeCos/examples/01-IsoP_trueno_rdkit_mp2/01-IsoP_g16_conformers/01-IsoP_341_gaussian.xyz
 28 27 0 0 0
SMALL
GASTEIGER

@<TRIPOS>ATOM
      1 C          -0.3999   -0.8078    0.5685 C.3     1  UNL11      -0.0286
      2 H           0.5156   -1.3839    0.4078 H       1  UNL11       0.0313
      3 H          -0.5204   -0.7213    1.6498 H       1  UNL11       0.0313
      4 C          -1.5648   -1.5315   -0.0584 C.2     1  UNL11      -0.0765
      5 C          -1.2454   -2.2994   -1.3125 C.3     1  UNL11      -0.0438
      6 H          -0.7774   -1.6541   -2.0592 H       1  UNL11       0.0274
      7 H          -2.1409   -2.7335   -1.7554 H       1  UNL11       0.0274
      8 H          -0.5400   -3.1068   -1.1042 H       1  UNL11       0.0274
      9 C          -2.8233   -1.4741    0.4155 C.2     1  UNL11      -0.0881
     10 H          -3.5917   -2.0137   -0.1310 H       1  UNL11       0.0569
     11 C          -3.2976   -0.7371    1.6311 C.3     1  UNL11      -0.0466
     12 H          -3.7511   -1.4218    2.3503 H       1  UNL11       0.0272
     13 H          -2.4932   -0.2054    2.1339 H       1  UNL11       0.0272
     14 H          -4.0621   -0.0054    1.3635 H       1  UNL11       0.0272
     15 C           2.6441    0.8202   -1.2523 C.3     1  UNL11      -0.0440
     16 H           2.9883    1.6114   -1.9221 H       1  UNL11       0.0274
     17 H           3.4849    0.1374   -1.1124 H       1  UNL11       0.0274
     18 H           1.8489    0.2733   -1.7521 H       1  UNL11       0.0274
     19 C           2.2203    1.3965    0.0703 C.2     1  UNL11      -0.0796
     20 C           3.3083    2.1147    0.8201 C.3     1  UNL11      -0.0440
     21 H           3.7062    2.9425    0.2287 H       1  UNL11       0.0274
     22 H           4.1451    1.4443    1.0291 H       1  UNL11       0.0274
     23 H           2.9458    2.5142    1.7659 H       1  UNL11       0.0274
     24 C           0.9767    1.3040    0.5777 C.2     1  UNL11      -0.0850
     25 H           0.8025    1.7456    1.5559 H       1  UNL11       0.0572
     26 C          -0.1997    0.5984   -0.0285 C.3     1  UNL11      -0.0308
     27 H          -1.1077    1.1800    0.1505 H       1  UNL11       0.0310
     28 H          -0.0967    0.5187   -1.1115 H       1  UNL11       0.0310
@<TRIPOS>BOND
     1     8     5    1
     2     2     1    1
     3    12    11    1
     4     3     1    1
     5     1     4    1
     6     1    26    1
     7     5     4    1
     8     5     7    1
     9     5     6    1
    10     4     9    2
    11    13    11    1
    12     9    11    1
    13     9    10    1
    14    11    14    1
    15    22    20    1
    16    17    15    1
    17    23    20    1
    18    25    24    1
    19    20    19    1
    20    20    21    1
    21    24    19    2
    22    24    26    1
    23    19    15    1
    24    26    28    1
    25    26    27    1
    26    15    18    1
    27    15    16    1
