@<TRIPOS>MOLECULE
/home/jramos/PycharmProjects/GeCos/examples/01-IsoP_trueno_rdkit_mp2/01-IsoP_g16_conformers/01-IsoP_1348_gaussian.xyz
 28 27 0 0 0
SMALL
GASTEIGER

@<TRIPOS>ATOM
      1 C           0.6987   -0.3200    0.3900 C.3     1  UNL1       -0.0286
      2 H           0.7940   -1.4015    0.5019 H       1  UNL1        0.0313
      3 H           0.0729    0.0197    1.2198 H       1  UNL1        0.0313
      4 C           2.0422    0.3608    0.4631 C.2     1  UNL1       -0.0765
      5 C           2.0228    1.7659    1.0017 C.3     1  UNL1       -0.0438
      6 H           1.3306    2.3934    0.4357 H       1  UNL1        0.0274
      7 H           1.6857    1.7787    2.0404 H       1  UNL1        0.0274
      8 H           3.0092    2.2258    0.9564 H       1  UNL1        0.0274
      9 C           3.1892   -0.2009    0.0380 C.2     1  UNL1       -0.0881
     10 H           4.0973    0.3909    0.1133 H       1  UNL1        0.0569
     11 C           3.3629   -1.5726   -0.5397 C.3     1  UNL1       -0.0466
     12 H           3.7826   -1.5161   -1.5457 H       1  UNL1        0.0272
     13 H           4.0563   -2.1642    0.0609 H       1  UNL1        0.0272
     14 H           2.4240   -2.1175   -0.6038 H       1  UNL1        0.0272
     15 C          -2.7661    1.3309   -0.3182 C.3     1  UNL1       -0.0440
     16 H          -3.2770    1.3941    0.6449 H       1  UNL1        0.0274
     17 H          -3.3988    1.8446   -1.0455 H       1  UNL1        0.0274
     18 H          -1.8297    1.8767   -0.2364 H       1  UNL1        0.0274
     19 C          -2.5755   -0.1085   -0.7090 C.2     1  UNL1       -0.0796
     20 C          -3.8439   -0.9134   -0.7796 C.3     1  UNL1       -0.0440
     21 H          -4.3548   -0.9205    0.1858 H       1  UNL1        0.0274
     22 H          -4.5391   -0.4803   -1.5024 H       1  UNL1        0.0274
     23 H          -3.6479   -1.9444   -1.0702 H       1  UNL1        0.0274
     24 C          -1.3840   -0.6709   -0.9863 C.2     1  UNL1       -0.0850
     25 H          -1.3774   -1.7289   -1.2364 H       1  UNL1        0.0572
     26 C          -0.0366   -0.0148   -0.9293 C.3     1  UNL1       -0.0308
     27 H           0.5805   -0.3730   -1.7573 H       1  UNL1        0.0310
     28 H          -0.1183    1.0657   -1.0544 H       1  UNL1        0.0310
@<TRIPOS>BOND
     1    27    26    1
     2    12    11    1
     3    22    20    1
     4    25    24    1
     5    23    20    1
     6    28    26    1
     7    17    15    1
     8    24    26    1
     9    24    19    2
    10    26     1    1
    11    20    19    1
    12    20    21    1
    13    19    15    1
    14    14    11    1
    15    11     9    1
    16    11    13    1
    17    15    18    1
    18    15    16    1
    19     9    10    1
    20     9     4    2
    21     1     4    1
    22     1     2    1
    23     1     3    1
    24     6     5    1
    25     4     5    1
    26     8     5    1
    27     5     7    1
