@<TRIPOS>MOLECULE
/home/jramos/PycharmProjects/GeCos/examples/01-IsoP_trueno_rdkit_mp2/01-IsoP_g16_conformers/01-IsoP_1030_gaussian.xyz
 28 27 0 0 0
SMALL
GASTEIGER

@<TRIPOS>ATOM
      1 C           0.5908   -0.9805    0.1348 C.3     1  UNL1       -0.0286
      2 H           0.2191   -1.9775    0.3885 H       1  UNL1        0.0313
      3 H           0.5062   -0.3833    1.0440 H       1  UNL1        0.0313
      4 C           2.0222   -1.0834   -0.3286 C.2     1  UNL1       -0.0765
      5 C           2.3800   -2.3533   -1.0514 C.3     1  UNL1       -0.0438
      6 H           1.7148   -2.5207   -1.9015 H       1  UNL1        0.0274
      7 H           3.4035   -2.3277   -1.4232 H       1  UNL1        0.0274
      8 H           2.2760   -3.2178   -0.3921 H       1  UNL1        0.0274
      9 C           2.9264   -0.0992   -0.1682 C.2     1  UNL1       -0.0881
     10 H           3.9253   -0.2631   -0.5631 H       1  UNL1        0.0569
     11 C           2.7097    1.2227    0.5038 C.3     1  UNL1       -0.0466
     12 H           1.6922    1.3391    0.8702 H       1  UNL1        0.0272
     13 H           3.3888    1.3475    1.3493 H       1  UNL1        0.0272
     14 H           2.9096    2.0435   -0.1876 H       1  UNL1        0.0272
     15 C          -1.8538    2.0016    0.3460 C.3     1  UNL1       -0.0440
     16 H          -2.4029    2.7793   -0.1896 H       1  UNL1        0.0274
     17 H          -0.8043    2.0772    0.0730 H       1  UNL1        0.0274
     18 H          -1.9419    2.2295    1.4105 H       1  UNL1        0.0274
     19 C          -2.4396    0.6474    0.0564 C.2     1  UNL1       -0.0796
     20 C          -3.8795    0.4860    0.4590 C.3     1  UNL1       -0.0440
     21 H          -4.5103    1.2160   -0.0532 H       1  UNL1        0.0274
     22 H          -4.0056    0.6555    1.5307 H       1  UNL1        0.0274
     23 H          -4.2512   -0.5104    0.2246 H       1  UNL1        0.0274
     24 C          -1.7647   -0.3653   -0.5194 C.2     1  UNL1       -0.0850
     25 H          -2.2934   -1.3053   -0.6558 H       1  UNL1        0.0572
     26 C          -0.3251   -0.3652   -0.9406 C.3     1  UNL1       -0.0308
     27 H           0.0268    0.6432   -1.1619 H       1  UNL1        0.0310
     28 H          -0.2189   -0.9360   -1.8670 H       1  UNL1        0.0310
@<TRIPOS>BOND
     1     6     5    1
     2    28    26    1
     3     7     5    1
     4    27    26    1
     5     5     8    1
     6     5     4    1
     7    26    24    1
     8    26     1    1
     9    25    24    1
    10    10     9    1
    11    24    19    2
    12     4     9    2
    13     4     1    1
    14    16    15    1
    15    14    11    1
    16     9    11    1
    17    21    20    1
    18    19    15    1
    19    19    20    1
    20    17    15    1
    21     1     2    1
    22     1     3    1
    23    23    20    1
    24    15    18    1
    25    20    22    1
    26    11    12    1
    27    11    13    1
