@<TRIPOS>MOLECULE
/home/jramos/PycharmProjects/GeCos/examples/01-IsoP_trueno_rdkit_mp2/01-IsoP_g16_conformers/01-IsoP_2337_gaussian.xyz
 28 27 0 0 0
SMALL
GASTEIGER

@<TRIPOS>ATOM
      1 C          -0.9457    0.0383   -0.0439 C.3     1  UNL11      -0.0286
      2 H          -1.4470    0.8554    0.4778 H       1  UNL11       0.0313
      3 H          -0.7311    0.4045   -1.0516 H       1  UNL11       0.0313
      4 C          -1.8277   -1.1818   -0.1305 C.2     1  UNL11      -0.0765
      5 C          -1.5937   -2.0608   -1.3293 C.3     1  UNL11      -0.0438
      6 H          -2.2066   -2.9605   -1.2920 H       1  UNL11       0.0274
      7 H          -0.5469   -2.3669   -1.3931 H       1  UNL11       0.0274
      8 H          -1.8247   -1.5264   -2.2534 H       1  UNL11       0.0274
      9 C          -2.7340   -1.5171    0.8063 C.2     1  UNL11      -0.0881
     10 H          -3.2977   -2.4338    0.6557 H       1  UNL11       0.0569
     11 C          -3.0615   -0.7605    2.0576 C.3     1  UNL11      -0.0466
     12 H          -2.8891   -1.3811    2.9388 H       1  UNL11       0.0272
     13 H          -4.1138   -0.4705    2.0744 H       1  UNL11       0.0272
     14 H          -2.4625    0.1407    2.1662 H       1  UNL11       0.0272
     15 C           3.0705    2.5313    0.0594 C.3     1  UNL11      -0.0440
     16 H           2.7018    3.1149    0.9015 H       1  UNL11       0.0274
     17 H           3.0080    3.1489   -0.8393 H       1  UNL11       0.0274
     18 H           4.1294    2.3211    0.2260 H       1  UNL11       0.0274
     19 C           2.2925    1.2556   -0.1116 C.2     1  UNL11      -0.0796
     20 C           2.7479    0.3909   -1.2543 C.3     1  UNL11      -0.0440
     21 H           3.7864    0.0837   -1.1121 H       1  UNL11       0.0274
     22 H           2.1425   -0.5034   -1.3781 H       1  UNL11       0.0274
     23 H           2.7106    0.9538   -2.1894 H       1  UNL11       0.0274
     24 C           1.2781    0.9484    0.7185 C.2     1  UNL11      -0.0850
     25 H           1.0325    1.6689    1.4949 H       1  UNL11       0.0572
     26 C           0.3924   -0.2605    0.6593 C.3     1  UNL11      -0.0308
     27 H           0.8888   -1.0887    0.1520 H       1  UNL11       0.0310
     28 H           0.1776   -0.6071    1.6734 H       1  UNL11       0.0310
@<TRIPOS>BOND
     1    23    20    1
     2    21    20    1
     3    20    22    1
     4    20    19    1
     5    17    15    1
     6     8     5    1
     7     7     5    1
     8    18    15    1
     9    15    19    1
    10    15    16    1
    11    19    24    2
    12     5     6    1
    13     5     4    1
    14     3     1    1
    15    27    26    1
    16    24    26    1
    17    24    25    1
    18     1     4    1
    19     1    26    1
    20     1     2    1
    21     4     9    2
    22    26    28    1
    23     9    10    1
    24     9    11    1
    25    14    11    1
    26    11    13    1
    27    11    12    1
