@<TRIPOS>MOLECULE
/home/jramos/PycharmProjects/GeCos/examples/01-IsoP_trueno_rdkit_mp2/01-IsoP_g16_conformers/01-IsoP_801_gaussian.xyz
 28 27 0 0 0
SMALL
GASTEIGER

@<TRIPOS>ATOM
      1 C          -0.9457    0.0382   -0.0440 C.3     1  UNL11      -0.0286
      2 H          -0.7310    0.4045   -1.0518 H       1  UNL11       0.0313
      3 H          -1.4470    0.8554    0.4777 H       1  UNL11       0.0313
      4 C          -1.8276   -1.1819   -0.1305 C.2     1  UNL11      -0.0765
      5 C          -1.5936   -2.0610   -1.3292 C.3     1  UNL11      -0.0438
      6 H          -2.2065   -2.9606   -1.2919 H       1  UNL11       0.0274
      7 H          -0.5469   -2.3671   -1.3929 H       1  UNL11       0.0274
      8 H          -1.8245   -1.5266   -2.2533 H       1  UNL11       0.0274
      9 C          -2.7341   -1.5170    0.8063 C.2     1  UNL11      -0.0881
     10 H          -3.2977   -2.4338    0.6556 H       1  UNL11       0.0569
     11 C          -3.0615   -0.7604    2.0576 C.3     1  UNL11      -0.0466
     12 H          -2.8892   -1.3809    2.9388 H       1  UNL11       0.0272
     13 H          -2.4626    0.1407    2.1659 H       1  UNL11       0.0272
     14 H          -4.1139   -0.4704    2.0742 H       1  UNL11       0.0272
     15 C           3.0704    2.5313    0.0594 C.3     1  UNL11      -0.0440
     16 H           4.1293    2.3211    0.2259 H       1  UNL11       0.0274
     17 H           3.0080    3.1489   -0.8394 H       1  UNL11       0.0274
     18 H           2.7017    3.1149    0.9014 H       1  UNL11       0.0274
     19 C           2.2925    1.2556   -0.1116 C.2     1  UNL11      -0.0796
     20 C           2.7479    0.3907   -1.2542 C.3     1  UNL11      -0.0440
     21 H           3.7864    0.0835   -1.1119 H       1  UNL11       0.0274
     22 H           2.1426   -0.5035   -1.3780 H       1  UNL11       0.0274
     23 H           2.7107    0.9536   -2.1894 H       1  UNL11       0.0274
     24 C           1.2781    0.9485    0.7185 C.2     1  UNL11      -0.0850
     25 H           1.0325    1.6691    1.4948 H       1  UNL11       0.0572
     26 C           0.3924   -0.2604    0.6593 C.3     1  UNL11      -0.0308
     27 H           0.1775   -0.6070    1.6734 H       1  UNL11       0.0310
     28 H           0.8888   -1.0887    0.1521 H       1  UNL11       0.0310
@<TRIPOS>BOND
     1    12    11    1
     2    27    26    1
     3    25    24    1
     4    16    15    1
     5    18    15    1
     6    24    26    1
     7    24    19    2
     8    13    11    1
     9    15    19    1
    10    15    17    1
    11    26    28    1
    12    26     1    1
    13    11    14    1
    14    11     9    1
    15    19    20    1
    16    21    20    1
    17    20    22    1
    18    20    23    1
    19     9    10    1
    20     9     4    2
    21     3     1    1
    22     1     4    1
    23     1     2    1
    24     4     5    1
    25     7     5    1
    26     5     6    1
    27     5     8    1
