@<TRIPOS>MOLECULE
/home/jramos/PycharmProjects/GeCos/examples/01-IsoP_trueno_rdkit_mp2/01-IsoP_g16_conformers/01-IsoP_3138_gaussian.xyz
 28 27 0 0 0
SMALL
GASTEIGER

@<TRIPOS>ATOM
      1 C          -0.9359   -0.2228    0.6661 C.3     1  UNL1       -0.0286
      2 H          -0.7001    0.8407    0.7298 H       1  UNL1        0.0313
      3 H          -0.9917   -0.5855    1.6965 H       1  UNL1        0.0313
      4 C          -2.2590   -0.4562   -0.0186 C.2     1  UNL1       -0.0765
      5 C          -3.0167   -1.6750    0.4330 C.3     1  UNL1       -0.0438
      6 H          -2.4024   -2.5736    0.3424 H       1  UNL1        0.0274
      7 H          -3.2998   -1.5887    1.4843 H       1  UNL1        0.0274
      8 H          -3.9220   -1.8240   -0.1541 H       1  UNL1        0.0274
      9 C          -2.7305    0.3255   -1.0079 C.2     1  UNL1       -0.0881
     10 H          -3.6834    0.0543   -1.4540 H       1  UNL1        0.0569
     11 C          -2.0793    1.5493   -1.5771 C.3     1  UNL1       -0.0466
     12 H          -1.8987    1.4273   -2.6468 H       1  UNL1        0.0272
     13 H          -1.1251    1.7690   -1.1036 H       1  UNL1        0.0272
     14 H          -2.7222    2.4240   -1.4616 H       1  UNL1        0.0272
     15 C           2.4353    1.1564   -0.6172 C.3     1  UNL1       -0.0440
     16 H           3.2779    1.0330   -1.3013 H       1  UNL1        0.0274
     17 H           2.5221    2.1565   -0.1871 H       1  UNL1        0.0274
     18 H           1.5174    1.1202   -1.1986 H       1  UNL1        0.0274
     19 C           2.4824    0.1193    0.4705 C.2     1  UNL1       -0.0796
     20 C           3.7176    0.1622    1.3272 C.3     1  UNL1       -0.0440
     21 H           4.6156    0.0216    0.7214 H       1  UNL1        0.0274
     22 H           3.6992   -0.6101    2.0947 H       1  UNL1        0.0274
     23 H           3.8166    1.1323    1.8195 H       1  UNL1        0.0274
     24 C           1.5191   -0.7951    0.6910 C.2     1  UNL1       -0.0850
     25 H           1.6594   -1.4786    1.5246 H       1  UNL1        0.0572
     26 C           0.2242   -0.9381   -0.0525 C.3     1  UNL1       -0.0308
     27 H           0.3002   -0.5451   -1.0671 H       1  UNL1        0.0310
     28 H          -0.0201   -1.9989   -0.1534 H       1  UNL1        0.0310
@<TRIPOS>BOND
     1    12    11    1
     2    11    14    1
     3    11    13    1
     4    11     9    1
     5    10     9    1
     6    16    15    1
     7    18    15    1
     8    27    26    1
     9     9     4    2
    10    15    17    1
    11    15    19    1
    12     8     5    1
    13    28    26    1
    14    26     1    1
    15    26    24    1
    16     4     5    1
    17     4     1    1
    18     6     5    1
    19     5     7    1
    20    19    24    2
    21    19    20    1
    22     1     2    1
    23     1     3    1
    24    24    25    1
    25    21    20    1
    26    20    23    1
    27    20    22    1
