@<TRIPOS>MOLECULE
/home/jramos/PycharmProjects/GeCos/examples/01-IsoP_trueno_rdkit_mp2/01-IsoP_g16_conformers/01-IsoP_334_gaussian.xyz
 28 27 0 0 0
SMALL
GASTEIGER

@<TRIPOS>ATOM
      1 C          -0.4388   -1.0510    0.2852 C.3     1  UNL1       -0.0286
      2 H          -0.6380   -0.3628    1.1081 H       1  UNL1        0.0313
      3 H           0.0520   -1.9225    0.7280 H       1  UNL1        0.0313
      4 C          -1.7133   -1.4859   -0.3934 C.2     1  UNL1       -0.0765
      5 C          -1.6914   -2.8666   -0.9905 C.3     1  UNL1       -0.0438
      6 H          -2.6130   -3.0849   -1.5286 H       1  UNL1        0.0274
      7 H          -1.5600   -3.6233   -0.2141 H       1  UNL1        0.0274
      8 H          -0.8577   -2.9787   -1.6873 H       1  UNL1        0.0274
      9 C          -2.7944   -0.6938   -0.5192 C.2     1  UNL1       -0.0881
     10 H          -3.6535   -1.0940   -1.0505 H       1  UNL1        0.0569
     11 C          -2.9521    0.7041   -0.0023 C.3     1  UNL1       -0.0466
     12 H          -3.1621    1.3957   -0.8204 H       1  UNL1        0.0272
     13 H          -3.7908    0.7714    0.6933 H       1  UNL1        0.0272
     14 H          -2.0610    1.0590    0.5105 H       1  UNL1        0.0272
     15 C           3.5480    1.3129    1.1555 C.3     1  UNL1       -0.0440
     16 H           4.1314    0.3941    1.1213 H       1  UNL1        0.0274
     17 H           4.1220    2.1015    0.6637 H       1  UNL1        0.0274
     18 H           3.4353    1.6086    2.2010 H       1  UNL1        0.0274
     19 C           2.2059    1.1398    0.4996 C.2     1  UNL1       -0.0796
     20 C           1.3405    2.3695    0.5042 C.3     1  UNL1       -0.0440
     21 H           1.8315    3.1857   -0.0306 H       1  UNL1        0.0274
     22 H           0.3660    2.2043    0.0516 H       1  UNL1        0.0274
     23 H           1.1820    2.7138    1.5284 H       1  UNL1        0.0274
     24 C           1.8472   -0.0399   -0.0412 C.2     1  UNL1       -0.0850
     25 H           2.5534   -0.8625    0.0392 H       1  UNL1        0.0572
     26 C           0.5381   -0.3719   -0.6938 C.3     1  UNL1       -0.0308
     27 H           0.0582    0.5179   -1.1031 H       1  UNL1        0.0310
     28 H           0.7150   -1.0404   -1.5406 H       1  UNL1        0.0310
@<TRIPOS>BOND
     1     8     5    1
     2    28    26    1
     3     6     5    1
     4    27    26    1
     5    10     9    1
     6     5     4    1
     7     5     7    1
     8    12    11    1
     9    26    24    1
    10    26     1    1
    11     9     4    2
    12     9    11    1
    13     4     1    1
    14    24    25    1
    15    24    19    2
    16    21    20    1
    17    11    14    1
    18    11    13    1
    19    22    20    1
    20     1     3    1
    21     1     2    1
    22    19    20    1
    23    19    15    1
    24    20    23    1
    25    17    15    1
    26    16    15    1
    27    15    18    1
