@<TRIPOS>MOLECULE
/home/jramos/PycharmProjects/GeCos/examples/01-IsoP_trueno_rdkit_mp2/01-IsoP_g16_conformers/01-IsoP_890_gaussian.xyz
 28 27 0 0 0
SMALL
GASTEIGER

@<TRIPOS>ATOM
      1 C          -0.3999   -0.8079    0.5686 C.3     1  UNL11      -0.0286
      2 H          -0.5204   -0.7214    1.6498 H       1  UNL11       0.0313
      3 H           0.5156   -1.3839    0.4077 H       1  UNL11       0.0313
      4 C          -1.5648   -1.5315   -0.0584 C.2     1  UNL11      -0.0765
      5 C          -1.2455   -2.2995   -1.3125 C.3     1  UNL11      -0.0438
      6 H          -2.1411   -2.7334   -1.7554 H       1  UNL11       0.0274
      7 H          -0.7775   -1.6541   -2.0594 H       1  UNL11       0.0274
      8 H          -0.5401   -3.1068   -1.1042 H       1  UNL11       0.0274
      9 C          -2.8232   -1.4741    0.4156 C.2     1  UNL11      -0.0881
     10 H          -3.5918   -2.0137   -0.1310 H       1  UNL11       0.0569
     11 C          -3.2976   -0.7371    1.6311 C.3     1  UNL11      -0.0466
     12 H          -4.0621   -0.0054    1.3635 H       1  UNL11       0.0272
     13 H          -3.7511   -1.4217    2.3503 H       1  UNL11       0.0272
     14 H          -2.4932   -0.2054    2.1339 H       1  UNL11       0.0272
     15 C           2.6442    0.8203   -1.2523 C.3     1  UNL11      -0.0440
     16 H           3.4848    0.1374   -1.1125 H       1  UNL11       0.0274
     17 H           2.9882    1.6114   -1.9222 H       1  UNL11       0.0274
     18 H           1.8488    0.2733   -1.7521 H       1  UNL11       0.0274
     19 C           2.2204    1.3965    0.0703 C.2     1  UNL11      -0.0796
     20 C           3.3083    2.1147    0.8200 C.3     1  UNL11      -0.0440
     21 H           2.9459    2.5141    1.7660 H       1  UNL11       0.0274
     22 H           3.7062    2.9425    0.2288 H       1  UNL11       0.0274
     23 H           4.1451    1.4443    1.0291 H       1  UNL11       0.0274
     24 C           0.9767    1.3040    0.5778 C.2     1  UNL11      -0.0850
     25 H           0.8025    1.7455    1.5559 H       1  UNL11       0.0572
     26 C          -0.1997    0.5985   -0.0284 C.3     1  UNL11      -0.0308
     27 H          -0.0968    0.5187   -1.1115 H       1  UNL11       0.0310
     28 H          -1.1077    1.1801    0.1506 H       1  UNL11       0.0310
@<TRIPOS>BOND
     1    21    20    1
     2    25    24    1
     3    12    11    1
     4    14    11    1
     5    22    20    1
     6    28    26    1
     7    11    13    1
     8    11     9    1
     9    20    19    1
    10    20    23    1
    11    24    26    1
    12    24    19    2
    13    26    27    1
    14    26     1    1
    15    19    15    1
    16     2     1    1
    17     9    10    1
    18     9     4    2
    19     1     4    1
    20     1     3    1
    21    17    15    1
    22    15    18    1
    23    15    16    1
    24     4     5    1
    25     7     5    1
    26     5     6    1
    27     5     8    1
