@<TRIPOS>MOLECULE
/home/jramos/PycharmProjects/GeCos/examples/01-IsoP_trueno_rdkit_mp2/01-IsoP_g16_conformers/01-IsoP_2917_gaussian.xyz
 28 27 0 0 0
SMALL
GASTEIGER

@<TRIPOS>ATOM
      1 C          -0.8179   -0.4257   -0.0306 C.3     1  UNL1       -0.0286
      2 H          -0.2504   -1.2357    0.4359 H       1  UNL1        0.0313
      3 H          -1.1249   -0.7931   -1.0113 H       1  UNL1        0.0313
      4 C          -2.0106   -0.0891    0.8285 C.2     1  UNL1       -0.0765
      5 C          -1.8003   -0.2442    2.3104 C.3     1  UNL1       -0.0438
      6 H          -0.9379    0.3356    2.6472 H       1  UNL1        0.0274
      7 H          -1.6011   -1.2870    2.5670 H       1  UNL1        0.0274
      8 H          -2.6708    0.0869    2.8754 H       1  UNL1        0.0274
      9 C          -3.1783    0.3689    0.3401 C.2     1  UNL1       -0.0881
     10 H          -3.9634    0.6057    1.0529 H       1  UNL1        0.0569
     11 C          -3.5279    0.5966   -1.0992 C.3     1  UNL1       -0.0466
     12 H          -3.7990    1.6402   -1.2689 H       1  UNL1        0.0272
     13 H          -4.3892   -0.0069   -1.3918 H       1  UNL1        0.0272
     14 H          -2.7055    0.3559   -1.7687 H       1  UNL1        0.0272
     15 C           3.6477   -0.2487   -1.5740 C.3     1  UNL1       -0.0440
     16 H           4.0219   -1.2568   -1.3819 H       1  UNL1        0.0274
     17 H           3.3030   -0.2029   -2.6059 H       1  UNL1        0.0274
     18 H           4.4969    0.4299   -1.4663 H       1  UNL1        0.0274
     19 C           2.5514    0.1093   -0.6087 C.2     1  UNL1       -0.0796
     20 C           2.9537    0.0739    0.8396 C.3     1  UNL1       -0.0440
     21 H           3.7575    0.7882    1.0315 H       1  UNL1        0.0274
     22 H           2.1317    0.2975    1.5147 H       1  UNL1        0.0274
     23 H           3.3412   -0.9139    1.0979 H       1  UNL1        0.0274
     24 C           1.3215    0.4342   -1.0497 C.2     1  UNL1       -0.0850
     25 H           1.1512    0.4018   -2.1230 H       1  UNL1        0.0572
     26 C           0.1224    0.7805   -0.2181 C.3     1  UNL1       -0.0308
     27 H          -0.4402    1.5826   -0.7028 H       1  UNL1        0.0310
     28 H           0.4176    1.1625    0.7600 H       1  UNL1        0.0310
@<TRIPOS>BOND
     1    17    15    1
     2    25    24    1
     3    14    11    1
     4    15    18    1
     5    15    16    1
     6    15    19    1
     7    13    11    1
     8    12    11    1
     9    11     9    1
    10    24    19    2
    11    24    26    1
    12     3     1    1
    13    27    26    1
    14    19    20    1
    15    26     1    1
    16    26    28    1
    17     1     2    1
    18     1     4    1
    19     9     4    2
    20     9    10    1
    21     4     5    1
    22    20    21    1
    23    20    23    1
    24    20    22    1
    25     5     7    1
    26     5     6    1
    27     5     8    1
