@<TRIPOS>MOLECULE
/home/jramos/PycharmProjects/GeCos/examples/01-IsoP_trueno_rdkit_mp2/01-IsoP_g16_conformers/01-IsoP_2733_gaussian.xyz
 28 27 0 0 0
SMALL
GASTEIGER

@<TRIPOS>ATOM
      1 C          -0.3494   -0.8934    0.4259 C.3     1  UNL11      -0.0286
      2 H           0.4323   -1.4130   -0.1352 H       1  UNL11       0.0313
      3 H          -0.1775   -1.1279    1.4779 H       1  UNL11       0.0313
      4 C          -1.7020   -1.3781   -0.0316 C.2     1  UNL11      -0.0765
      5 C          -1.7944   -1.7471   -1.4875 C.3     1  UNL11      -0.0438
      6 H          -1.1421   -2.5928   -1.7157 H       1  UNL11       0.0274
      7 H          -2.8122   -2.0143   -1.7691 H       1  UNL11       0.0274
      8 H          -1.4740   -0.9187   -2.1233 H       1  UNL11       0.0274
      9 C          -2.7834   -1.4399    0.7674 C.2     1  UNL11      -0.0881
     10 H          -3.7163   -1.7798    0.3259 H       1  UNL11       0.0569
     11 C          -2.8530   -1.0862    2.2219 C.3     1  UNL11      -0.0466
     12 H          -3.5849   -0.2942    2.3907 H       1  UNL11       0.0272
     13 H          -3.1705   -1.9442    2.8175 H       1  UNL11       0.0272
     14 H          -1.8977   -0.7416    2.6110 H       1  UNL11       0.0272
     15 C           3.5669    1.7556    0.4505 C.3     1  UNL11      -0.0440
     16 H           4.3591    1.0381    0.2250 H       1  UNL11       0.0274
     17 H           3.5020    1.8646    1.5321 H       1  UNL11       0.0274
     18 H           3.8781    2.7137    0.0280 H       1  UNL11       0.0274
     19 C           2.2570    1.3111   -0.1396 C.2     1  UNL11      -0.0796
     20 C           2.2662    1.1434   -1.6338 C.3     1  UNL11      -0.0440
     21 H           1.3189    0.7833   -2.0269 H       1  UNL11       0.0274
     22 H           2.5017    2.0906   -2.1241 H       1  UNL11       0.0274
     23 H           3.0431    0.4343   -1.9276 H       1  UNL11       0.0274
     24 C           1.1838    1.0958    0.6443 C.2     1  UNL11      -0.0850
     25 H           1.3123    1.2319    1.7152 H       1  UNL11       0.0572
     26 C          -0.1728    0.6226    0.2140 C.3     1  UNL11      -0.0308
     27 H          -0.3614    0.8643   -0.8328 H       1  UNL11       0.0310
     28 H          -0.9420    1.1420    0.7914 H       1  UNL11       0.0310
@<TRIPOS>BOND
     1     6     5    1
     2     7     5    1
     3     5     8    1
     4     5     4    1
     5    23    20    1
     6     2     1    1
     7    21    20    1
     8     4     1    1
     9     4     9    2
    10    10     9    1
    11    20    22    1
    12    20    19    1
    13     1     3    1
    14     1    26    1
    15     9    11    1
    16    27    26    1
    17    16    15    1
    18    26    24    1
    19    26    28    1
    20    19    24    2
    21    19    15    1
    22    13    11    1
    23    11    14    1
    24    11    12    1
    25    24    25    1
    26    15    18    1
    27    15    17    1
