@<TRIPOS>MOLECULE
/home/jramos/PycharmProjects/GeCos/examples/01-IsoP_trueno_rdkit_mp2/01-IsoP_g16_conformers/01-IsoP_1572_gaussian.xyz
 28 27 0 0 0
SMALL
GASTEIGER

@<TRIPOS>ATOM
      1 C          -0.6870   -0.3828   -0.6234 C.3     1  UNL1       -0.0286
      2 H          -0.5712   -0.1988   -1.6929 H       1  UNL1        0.0313
      3 H          -0.2490   -1.3665   -0.4329 H       1  UNL1        0.0313
      4 C          -2.1404   -0.3943   -0.2218 C.2     1  UNL1       -0.0765
      5 C          -2.4749   -1.2667    0.9579 C.3     1  UNL1       -0.0438
      6 H          -3.5218   -1.1707    1.2430 H       1  UNL1        0.0274
      7 H          -1.8631   -1.0061    1.8246 H       1  UNL1        0.0274
      8 H          -2.2754   -2.3167    0.7330 H       1  UNL1        0.0274
      9 C          -3.0878    0.3499   -0.8219 C.2     1  UNL1       -0.0881
     10 H          -4.1004    0.2843   -0.4333 H       1  UNL1        0.0569
     11 C          -2.9054    1.2777   -1.9845 C.3     1  UNL1       -0.0466
     12 H          -1.8739    1.3156   -2.3269 H       1  UNL1        0.0272
     13 H          -3.5300    0.9752   -2.8271 H       1  UNL1        0.0272
     14 H          -3.2033    2.2931   -1.7168 H       1  UNL1        0.0272
     15 C           3.9879    0.1003   -0.1067 C.3     1  UNL1       -0.0440
     16 H           4.3691   -0.9047   -0.3011 H       1  UNL1        0.0274
     17 H           4.0441    0.6721   -1.0317 H       1  UNL1        0.0274
     18 H           4.6614    0.5590    0.6208 H       1  UNL1        0.0274
     19 C           2.5823    0.0470    0.4254 C.2     1  UNL1       -0.0796
     20 C           2.4249   -0.7229    1.7073 C.3     1  UNL1       -0.0440
     21 H           2.7919   -1.7436    1.5800 H       1  UNL1        0.0274
     22 H           3.0217   -0.2697    2.5020 H       1  UNL1        0.0274
     23 H           1.3935   -0.7784    2.0460 H       1  UNL1        0.0274
     24 C           1.5739    0.6583   -0.2244 C.2     1  UNL1       -0.0850
     25 H           1.8148    1.1659   -1.1552 H       1  UNL1        0.0572
     26 C           0.1237    0.6691    0.1578 C.3     1  UNL1       -0.0308
     27 H          -0.3022    1.6543   -0.0493 H       1  UNL1        0.0310
     28 H          -0.0036    0.5001    1.2278 H       1  UNL1        0.0310
@<TRIPOS>BOND
     1    13    11    1
     2    12    11    1
     3    11    14    1
     4    11     9    1
     5     2     1    1
     6    25    24    1
     7    17    15    1
     8     9    10    1
     9     9     4    2
    10     1     3    1
    11     1     4    1
    12     1    26    1
    13    16    15    1
    14    24    26    1
    15    24    19    2
    16     4     5    1
    17    15    19    1
    18    15    18    1
    19    27    26    1
    20    26    28    1
    21    19    20    1
    22     8     5    1
    23     5     6    1
    24     5     7    1
    25    21    20    1
    26    20    23    1
    27    20    22    1
