@<TRIPOS>MOLECULE
/home/jramos/PycharmProjects/GeCos/examples/01-IsoP_trueno_rdkit_mp2/01-IsoP_g16_conformers/01-IsoP_1504_gaussian.xyz
 28 27 0 0 0
SMALL
GASTEIGER

@<TRIPOS>ATOM
      1 C           0.2672   -0.0258    1.1345 C.3     1  UNL1       -0.0286
      2 H          -0.3836   -0.1572    2.0037 H       1  UNL1        0.0313
      3 H           0.1506    1.0128    0.8208 H       1  UNL1        0.0313
      4 C           1.6917   -0.3290    1.5258 C.2     1  UNL1       -0.0765
      5 C           1.8624   -1.3817    2.5871 C.3     1  UNL1       -0.0438
      6 H           2.9137   -1.6040    2.7651 H       1  UNL1        0.0274
      7 H           1.3634   -2.3104    2.3012 H       1  UNL1        0.0274
      8 H           1.4156   -1.0585    3.5299 H       1  UNL1        0.0274
      9 C           2.7597    0.2479    0.9442 C.2     1  UNL1       -0.0881
     10 H           3.7454   -0.0610    1.2811 H       1  UNL1        0.0569
     11 C           2.7458    1.2861   -0.1365 C.3     1  UNL1       -0.0466
     12 H           1.7366    1.5506   -0.4438 H       1  UNL1        0.0272
     13 H           3.2484    2.1982    0.1911 H       1  UNL1        0.0272
     14 H           3.2791    0.9296   -1.0198 H       1  UNL1        0.0272
     15 C          -3.6694    0.2435   -1.4482 C.3     1  UNL1       -0.0440
     16 H          -3.9644    1.2895   -1.3386 H       1  UNL1        0.0274
     17 H          -4.2209   -0.3456   -0.7171 H       1  UNL1        0.0274
     18 H          -3.9818   -0.0704   -2.4468 H       1  UNL1        0.0274
     19 C          -2.1837    0.0847   -1.2782 C.2     1  UNL1       -0.0796
     20 C          -1.3516    0.8674   -2.2560 C.3     1  UNL1       -0.0440
     21 H          -0.2833    0.7570   -2.0879 H       1  UNL1        0.0274
     22 H          -1.5701    0.5565   -3.2801 H       1  UNL1        0.0274
     23 H          -1.5947    1.9301   -2.1903 H       1  UNL1        0.0274
     24 C          -1.6786   -0.7092   -0.3152 C.2     1  UNL1       -0.0850
     25 H          -2.3849   -1.2060    0.3453 H       1  UNL1        0.0572
     26 C          -0.2294   -0.9383   -0.0033 C.3     1  UNL1       -0.0308
     27 H           0.3990   -0.7750   -0.8798 H       1  UNL1        0.0310
     28 H          -0.0823   -1.9818    0.2878 H       1  UNL1        0.0310
@<TRIPOS>BOND
     1    22    20    1
     2    18    15    1
     3    20    23    1
     4    20    21    1
     5    20    19    1
     6    15    16    1
     7    15    19    1
     8    15    17    1
     9    19    24    2
    10    14    11    1
    11    27    26    1
    12    12    11    1
    13    24    26    1
    14    24    25    1
    15    11    13    1
    16    11     9    1
    17    26    28    1
    18    26     1    1
    19     3     1    1
    20     9    10    1
    21     9     4    2
    22     1     4    1
    23     1     2    1
    24     4     5    1
    25     7     5    1
    26     5     6    1
    27     5     8    1
