@<TRIPOS>MOLECULE
/home/jramos/PycharmProjects/GeCos/examples/01-IsoP_trueno_rdkit_mp2/01-IsoP_g16_conformers/01-IsoP_518_gaussian.xyz
 28 27 0 0 0
SMALL
GASTEIGER

@<TRIPOS>ATOM
      1 C           0.8165    0.3252    0.8876 C.3     1  UNL1       -0.0286
      2 H           0.4916   -0.6900    1.1208 H       1  UNL1        0.0313
      3 H           0.7155    0.8985    1.8136 H       1  UNL1        0.0313
      4 C           2.2545    0.3558    0.4347 C.2     1  UNL1       -0.0765
      5 C           3.0114    1.6136    0.7641 C.3     1  UNL1       -0.0438
      6 H           3.0950    1.7446    1.8451 H       1  UNL1        0.0274
      7 H           2.4945    2.4944    0.3766 H       1  UNL1        0.0274
      8 H           4.0157    1.5986    0.3426 H       1  UNL1        0.0274
      9 C           2.8330   -0.6375   -0.2658 C.2     1  UNL1       -0.0881
     10 H           3.8683   -0.5048   -0.5678 H       1  UNL1        0.0569
     11 C           2.2011   -1.9296   -0.6868 C.3     1  UNL1       -0.0466
     12 H           2.7437   -2.7826   -0.2748 H       1  UNL1        0.0272
     13 H           1.1637   -2.0061   -0.3692 H       1  UNL1        0.0272
     14 H           2.2242   -2.0335   -1.7733 H       1  UNL1        0.0272
     15 C          -2.3681   -1.1691   -0.7060 C.3     1  UNL1       -0.0440
     16 H          -1.3613   -1.2934   -1.0966 H       1  UNL1        0.0274
     17 H          -3.0632   -1.1638   -1.5486 H       1  UNL1        0.0274
     18 H          -2.6073   -2.0494   -0.1054 H       1  UNL1        0.0274
     19 C          -2.5282    0.0786    0.1179 C.2     1  UNL1       -0.0796
     20 C          -3.8959    0.2675    0.7138 C.3     1  UNL1       -0.0440
     21 H          -3.9550    1.1854    1.2966 H       1  UNL1        0.0274
     22 H          -4.6579    0.3085   -0.0678 H       1  UNL1        0.0274
     23 H          -4.1558   -0.5697    1.3656 H       1  UNL1        0.0274
     24 C          -1.5519    0.9819    0.3267 C.2     1  UNL1       -0.0850
     25 H          -1.7853    1.8334    0.9609 H       1  UNL1        0.0572
     26 C          -0.1381    0.9126   -0.1696 C.3     1  UNL1       -0.0308
     27 H          -0.0620    0.3140   -1.0781 H       1  UNL1        0.0310
     28 H           0.2015    1.9170   -0.4364 H       1  UNL1        0.0310
@<TRIPOS>BOND
     1    14    11    1
     2    17    15    1
     3    16    15    1
     4    27    26    1
     5    15    18    1
     6    15    19    1
     7    11    13    1
     8    11    12    1
     9    11     9    1
    10    10     9    1
    11    28    26    1
    12     9     4    2
    13    26    24    1
    14    26     1    1
    15    22    20    1
    16    19    24    2
    17    19    20    1
    18    24    25    1
    19     8     5    1
    20     7     5    1
    21     4     5    1
    22     4     1    1
    23    20    21    1
    24    20    23    1
    25     5     6    1
    26     1     2    1
    27     1     3    1
