@<TRIPOS>MOLECULE
/home/jramos/PycharmProjects/GeCos/examples/01-IsoP_trueno_rdkit_mp2/01-IsoP_g16_conformers/01-IsoP_608_gaussian.xyz
 28 27 0 0 0
SMALL
GASTEIGER

@<TRIPOS>ATOM
      1 C          -0.3083   -0.7222    0.6617 C.3     1  UNL1       -0.0286
      2 H          -0.1903    0.2853    1.0637 H       1  UNL1        0.0313
      3 H           0.3116   -1.3739    1.2841 H       1  UNL1        0.0313
      4 C          -1.7431   -1.1812    0.7312 C.2     1  UNL1       -0.0765
      5 C          -1.9422   -2.6624    0.9046 C.3     1  UNL1       -0.0438
      6 H          -1.4243   -3.2213    0.1220 H       1  UNL1        0.0274
      7 H          -1.5333   -3.0000    1.8594 H       1  UNL1        0.0274
      8 H          -2.9972   -2.9313    0.8700 H       1  UNL1        0.0274
      9 C          -2.7947   -0.3519    0.5961 C.2     1  UNL1       -0.0881
     10 H          -3.7890   -0.7883    0.6346 H       1  UNL1        0.0569
     11 C          -2.7514    1.1323    0.3931 C.3     1  UNL1       -0.0466
     12 H          -3.2744    1.6524    1.1980 H       1  UNL1        0.0272
     13 H          -1.7342    1.5150    0.3511 H       1  UNL1        0.0272
     14 H          -3.2487    1.4082   -0.5387 H       1  UNL1        0.0272
     15 C           1.4244    2.0558   -1.3863 C.3     1  UNL1       -0.0440
     16 H           1.6831    2.4435   -2.3742 H       1  UNL1        0.0274
     17 H           0.3518    1.8811   -1.3598 H       1  UNL1        0.0274
     18 H           1.6547    2.8452   -0.6675 H       1  UNL1        0.0274
     19 C           2.2277    0.8231   -1.0762 C.2     1  UNL1       -0.0796
     20 C           3.7171    1.0307   -1.0598 C.3     1  UNL1       -0.0440
     21 H           3.9978    1.7789   -0.3151 H       1  UNL1        0.0274
     22 H           4.2472    0.1070   -0.8328 H       1  UNL1        0.0274
     23 H           4.0687    1.3987   -2.0263 H       1  UNL1        0.0274
     24 C           1.6955   -0.3891   -0.8311 C.2     1  UNL1       -0.0850
     25 H           2.3820   -1.1989   -0.5970 H       1  UNL1        0.0572
     26 C           0.2382   -0.7403   -0.7787 C.3     1  UNL1       -0.0308
     27 H           0.0906   -1.7372   -1.2026 H       1  UNL1        0.0310
     28 H          -0.3593   -0.0594   -1.3862 H       1  UNL1        0.0310
@<TRIPOS>BOND
     1    16    15    1
     2    23    20    1
     3    15    17    1
     4    15    19    1
     5    15    18    1
     6    28    26    1
     7    27    26    1
     8    19    20    1
     9    19    24    2
    10    20    22    1
    11    20    21    1
    12    24    26    1
    13    24    25    1
    14    26     1    1
    15    14    11    1
    16     6     5    1
    17    13    11    1
    18    11     9    1
    19    11    12    1
    20     9    10    1
    21     9     4    2
    22     1     4    1
    23     1     2    1
    24     1     3    1
    25     4     5    1
    26     8     5    1
    27     5     7    1
