@<TRIPOS>MOLECULE
/home/jramos/PycharmProjects/GeCos/examples/01-IsoP_trueno_rdkit_mp2/01-IsoP_g16_conformers/01-IsoP_166_gaussian.xyz
 28 27 0 0 0
SMALL
GASTEIGER

@<TRIPOS>ATOM
      1 C           0.9323   -0.4302    0.6147 C.3     1  UNL1       -0.0286
      2 H           0.5897    0.4673    1.1320 H       1  UNL1        0.0313
      3 H           0.9919   -1.2160    1.3733 H       1  UNL1        0.0313
      4 C           2.2927   -0.2275   -0.0034 C.2     1  UNL1       -0.0765
      5 C           3.1537   -1.4580   -0.0937 C.3     1  UNL1       -0.0438
      6 H           4.0872   -1.2559   -0.6174 H       1  UNL1        0.0274
      7 H           3.3940   -1.8376    0.9017 H       1  UNL1        0.0274
      8 H           2.6353   -2.2606   -0.6229 H       1  UNL1        0.0274
      9 C           2.7144    0.9510   -0.4987 C.2     1  UNL1       -0.0881
     10 H           3.7030    0.9841   -0.9483 H       1  UNL1        0.0569
     11 C           1.9624    2.2473   -0.5031 C.3     1  UNL1       -0.0466
     12 H           1.8283    2.6112   -1.5236 H       1  UNL1        0.0272
     13 H           0.9768    2.1558   -0.0523 H       1  UNL1        0.0272
     14 H           2.5111    3.0194    0.0396 H       1  UNL1        0.0272
     15 C          -2.5181    1.1247   -0.1541 C.3     1  UNL1       -0.0440
     16 H          -2.7175    1.8108    0.6720 H       1  UNL1        0.0274
     17 H          -3.3225    1.2628   -0.8800 H       1  UNL1        0.0274
     18 H          -1.5836    1.4253   -0.6211 H       1  UNL1        0.0274
     19 C          -2.4954   -0.2935    0.3450 C.2     1  UNL1       -0.0796
     20 C          -3.7547   -0.7369    1.0372 C.3     1  UNL1       -0.0440
     21 H          -3.9652   -0.1065    1.9041 H       1  UNL1        0.0274
     22 H          -3.6832   -1.7696    1.3748 H       1  UNL1        0.0274
     23 H          -4.6150   -0.6538    0.3691 H       1  UNL1        0.0274
     24 C          -1.4530   -1.1333    0.2008 C.2     1  UNL1       -0.0850
     25 H          -1.5502   -2.1292    0.6257 H       1  UNL1        0.0572
     26 C          -0.1278   -0.8257   -0.4311 C.3     1  UNL1       -0.0308
     27 H           0.2241   -1.7034   -0.9798 H       1  UNL1        0.0310
     28 H          -0.2110   -0.0217   -1.1635 H       1  UNL1        0.0310
@<TRIPOS>BOND
     1    12    11    1
     2    28    26    1
     3    27    26    1
     4    10     9    1
     5    17    15    1
     6     8     5    1
     7    18    15    1
     8     6     5    1
     9    11     9    1
    10    11    13    1
    11    11    14    1
    12     9     4    2
    13    26    24    1
    14    26     1    1
    15    15    19    1
    16    15    16    1
    17     5     4    1
    18     5     7    1
    19     4     1    1
    20    24    19    2
    21    24    25    1
    22    19    20    1
    23    23    20    1
    24     1     2    1
    25     1     3    1
    26    20    22    1
    27    20    21    1
