@<TRIPOS>MOLECULE
/home/jramos/PycharmProjects/GeCos/examples/01-IsoP_trueno_rdkit_mp2/01-IsoP_g16_conformers/01-IsoP_1413_gaussian.xyz
 28 27 0 0 0
SMALL
GASTEIGER

@<TRIPOS>ATOM
      1 C           0.7139   -0.6709    0.0226 C.3     1  UNL1       -0.0286
      2 H           0.9355   -1.2666    0.9098 H       1  UNL1        0.0313
      3 H           0.0276   -1.2684   -0.5838 H       1  UNL1        0.0313
      4 C           1.9628   -0.3813   -0.7713 C.2     1  UNL1       -0.0765
      5 C           1.7584   -0.2106   -2.2523 C.3     1  UNL1       -0.0438
      6 H           1.3919   -1.1356   -2.7027 H       1  UNL1        0.0274
      7 H           1.0125    0.5602   -2.4592 H       1  UNL1        0.0274
      8 H           2.6831    0.0714   -2.7544 H       1  UNL1        0.0274
      9 C           3.1811   -0.2294   -0.2194 C.2     1  UNL1       -0.0881
     10 H           4.0086    0.0042   -0.8836 H       1  UNL1        0.0569
     11 C           3.5357   -0.3453    1.2319 C.3     1  UNL1       -0.0466
     12 H           4.2775   -1.1303    1.3910 H       1  UNL1        0.0272
     13 H           3.9749    0.5852    1.5962 H       1  UNL1        0.0272
     14 H           2.6716   -0.5682    1.8535 H       1  UNL1        0.0272
     15 C          -3.6878   -0.0437    1.6310 C.3     1  UNL1       -0.0440
     16 H          -3.3605   -0.2563    2.6476 H       1  UNL1        0.0274
     17 H          -4.4086    0.7762    1.6678 H       1  UNL1        0.0274
     18 H          -4.2223   -0.9182    1.2530 H       1  UNL1        0.0274
     19 C          -2.5283    0.3032    0.7384 C.2     1  UNL1       -0.0796
     20 C          -2.9024    0.6156   -0.6841 C.3     1  UNL1       -0.0440
     21 H          -2.0414    0.8231   -1.3143 H       1  UNL1        0.0274
     22 H          -3.4452   -0.2243   -1.1229 H       1  UNL1        0.0274
     23 H          -3.5707    1.4787   -0.7236 H       1  UNL1        0.0274
     24 C          -1.2701    0.3250    1.2172 C.2     1  UNL1       -0.0850
     25 H          -1.1287    0.0584    2.2617 H       1  UNL1        0.0572
     26 C          -0.0139    0.6176    0.4520 C.3     1  UNL1       -0.0308
     27 H           0.6660    1.2048    1.0748 H       1  UNL1        0.0310
     28 H          -0.2215    1.2250   -0.4299 H       1  UNL1        0.0310
@<TRIPOS>BOND
     1     8     5    1
     2     6     5    1
     3     7     5    1
     4     5     4    1
     5    21    20    1
     6    22    20    1
     7    10     9    1
     8     4     9    2
     9     4     1    1
    10    23    20    1
    11    20    19    1
    12     3     1    1
    13    28    26    1
    14     9    11    1
    15     1    26    1
    16     1     2    1
    17    26    27    1
    18    26    24    1
    19    19    24    2
    20    19    15    1
    21    24    25    1
    22    11    12    1
    23    11    13    1
    24    11    14    1
    25    18    15    1
    26    15    17    1
    27    15    16    1
