@<TRIPOS>MOLECULE
/home/jramos/PycharmProjects/GeCos/examples/01-IsoP_trueno_rdkit_mp2/01-IsoP_g16_conformers/01-IsoP_3819_gaussian.xyz
 28 27 0 0 0
SMALL
GASTEIGER

@<TRIPOS>ATOM
      1 C           0.7305   -0.3484    0.5683 C.3     1  UNL1       -0.0286
      2 H           0.9255   -1.4205    0.5063 H       1  UNL1        0.0313
      3 H           0.0834   -0.2047    1.4380 H       1  UNL1        0.0313
      4 C           2.0065    0.4325    0.7576 C.2     1  UNL1       -0.0765
      5 C           1.8631    1.7255    1.5139 C.3     1  UNL1       -0.0438
      6 H           2.8027    2.2755    1.5487 H       1  UNL1        0.0274
      7 H           1.5354    1.5410    2.5393 H       1  UNL1        0.0274
      8 H           1.1113    2.3692    1.0515 H       1  UNL1        0.0274
      9 C           3.1963    0.0538    0.2550 C.2     1  UNL1       -0.0881
     10 H           4.0470    0.7069    0.4294 H       1  UNL1        0.0569
     11 C           3.4900   -1.1860   -0.5338 C.3     1  UNL1       -0.0466
     12 H           4.2400   -1.7998   -0.0314 H       1  UNL1        0.0272
     13 H           3.8939   -0.9310   -1.5153 H       1  UNL1        0.0272
     14 H           2.6045   -1.7976   -0.6900 H       1  UNL1        0.0272
     15 C          -3.7487   -1.1621   -0.7086 C.3     1  UNL1       -0.0440
     16 H          -4.2483   -1.3704    0.2402 H       1  UNL1        0.0274
     17 H          -4.4870   -0.6847   -1.3569 H       1  UNL1        0.0274
     18 H          -3.4616   -2.1109   -1.1592 H       1  UNL1        0.0274
     19 C          -2.5589   -0.2657   -0.5025 C.2     1  UNL1       -0.0796
     20 C          -2.8772    1.0690    0.1125 C.3     1  UNL1       -0.0440
     21 H          -1.9941    1.6784    0.2863 H       1  UNL1        0.0274
     22 H          -3.3833    0.9302    1.0702 H       1  UNL1        0.0274
     23 H          -3.5606    1.6321   -0.5270 H       1  UNL1        0.0274
     24 C          -1.3233   -0.6646   -0.8590 C.2     1  UNL1       -0.0850
     25 H          -1.2219   -1.6639   -1.2751 H       1  UNL1        0.0572
     26 C          -0.0413    0.0950   -0.6895 C.3     1  UNL1       -0.0308
     27 H          -0.2228    1.1694   -0.6406 H       1  UNL1        0.0310
     28 H           0.5988   -0.0680   -1.5605 H       1  UNL1        0.0310
@<TRIPOS>BOND
     1    28    26    1
     2    13    11    1
     3    17    15    1
     4    25    24    1
     5    18    15    1
     6    24    26    1
     7    24    19    2
     8    15    19    1
     9    15    16    1
    10    14    11    1
    11    26    27    1
    12    26     1    1
    13    11    12    1
    14    11     9    1
    15    23    20    1
    16    19    20    1
    17    20    21    1
    18    20    22    1
    19     9    10    1
    20     9     4    2
    21     2     1    1
    22     1     4    1
    23     1     3    1
    24     4     5    1
    25     8     5    1
    26     5     6    1
    27     5     7    1
