@<TRIPOS>MOLECULE
/home/jramos/PycharmProjects/GeCos/examples/01-IsoP_trueno_rdkit_mp2/01-IsoP_g16_conformers/01-IsoP_460_gaussian.xyz
 28 27 0 0 0
SMALL
GASTEIGER

@<TRIPOS>ATOM
      1 C          -0.9359    0.1883    0.1535 C.3     1  UNL1       -0.0286
      2 H          -0.8645   -0.5998    0.9082 H       1  UNL1        0.0313
      3 H          -1.1264    1.1154    0.6970 H       1  UNL1        0.0313
      4 C          -2.0592   -0.1306   -0.8004 C.2     1  UNL1       -0.0765
      5 C          -2.2797   -1.5949   -1.0681 C.3     1  UNL1       -0.0438
      6 H          -1.3619   -2.0722   -1.4190 H       1  UNL1        0.0274
      7 H          -2.5790   -2.1154   -0.1557 H       1  UNL1        0.0274
      8 H          -3.0511   -1.7528   -1.8208 H       1  UNL1        0.0274
      9 C          -2.7983    0.8053   -1.4247 C.2     1  UNL1       -0.0881
     10 H          -3.5660    0.4631   -2.1133 H       1  UNL1        0.0569
     11 C          -2.6824    2.2922   -1.2797 C.3     1  UNL1       -0.0466
     12 H          -2.4667    2.7572   -2.2435 H       1  UNL1        0.0272
     13 H          -1.8932    2.5813   -0.5897 H       1  UNL1        0.0272
     14 H          -3.6190    2.7236   -0.9215 H       1  UNL1        0.0272
     15 C           3.4544    0.1461    1.9082 C.3     1  UNL1       -0.0440
     16 H           3.3393   -0.3666    2.8658 H       1  UNL1        0.0274
     17 H           3.4072    1.2192    2.0871 H       1  UNL1        0.0274
     18 H           4.4534   -0.0956    1.5380 H       1  UNL1        0.0274
     19 C           2.4004   -0.2983    0.9319 C.2     1  UNL1       -0.0796
     20 C           2.4058   -1.7711    0.6291 C.3     1  UNL1       -0.0440
     21 H           2.2950   -2.3447    1.5517 H       1  UNL1        0.0274
     22 H           3.3591   -2.0674    0.1857 H       1  UNL1        0.0274
     23 H           1.6088   -2.0689   -0.0474 H       1  UNL1        0.0274
     24 C           1.5420    0.5870    0.3915 C.2     1  UNL1       -0.0850
     25 H           1.6279    1.6234    0.7088 H       1  UNL1        0.0572
     26 C           0.4232    0.2975   -0.5644 C.3     1  UNL1       -0.0308
     27 H           0.6097   -0.6202   -1.1238 H       1  UNL1        0.0310
     28 H           0.3572    1.0991   -1.3046 H       1  UNL1        0.0310
@<TRIPOS>BOND
     1    12    11    1
     2    10     9    1
     3     8     5    1
     4     9    11    1
     5     9     4    2
     6     6     5    1
     7    28    26    1
     8    11    14    1
     9    11    13    1
    10    27    26    1
    11     5     4    1
    12     5     7    1
    13     4     1    1
    14    26     1    1
    15    26    24    1
    16    23    20    1
    17     1     3    1
    18     1     2    1
    19    22    20    1
    20    24    25    1
    21    24    19    2
    22    20    19    1
    23    20    21    1
    24    19    15    1
    25    18    15    1
    26    15    17    1
    27    15    16    1
