@<TRIPOS>MOLECULE
/home/jramos/PycharmProjects/GeCos/examples/01-IsoP_trueno_rdkit_mp2/01-IsoP_g16_conformers/01-IsoP_2021_gaussian.xyz
 28 27 0 0 0
SMALL
GASTEIGER

@<TRIPOS>ATOM
      1 C          -0.3173   -0.9115    0.1972 C.3     1  UNL1       -0.0286
      2 H           0.0737   -1.3890    1.0973 H       1  UNL1        0.0313
      3 H           0.3071   -1.2600   -0.6301 H       1  UNL1        0.0313
      4 C          -1.7508   -1.3050   -0.0555 C.2     1  UNL1       -0.0765
      5 C          -2.1705   -1.3131   -1.5006 C.3     1  UNL1       -0.0438
      6 H          -1.6089   -2.0617   -2.0636 H       1  UNL1        0.0274
      7 H          -3.2326   -1.5298   -1.6081 H       1  UNL1        0.0274
      8 H          -1.9729   -0.3476   -1.9719 H       1  UNL1        0.0274
      9 C          -2.6325   -1.5856    0.9220 C.2     1  UNL1       -0.0881
     10 H          -3.6489   -1.8320    0.6273 H       1  UNL1        0.0569
     11 C          -2.3716   -1.5962    2.3976 C.3     1  UNL1       -0.0466
     12 H          -3.0253   -0.8873    2.9091 H       1  UNL1        0.0272
     13 H          -2.5760   -2.5805    2.8230 H       1  UNL1        0.0272
     14 H          -1.3447   -1.3320    2.6391 H       1  UNL1        0.0272
     15 C           3.5851    1.7508    0.0010 C.3     1  UNL1       -0.0440
     16 H           3.8241    2.7902   -0.2353 H       1  UNL1        0.0274
     17 H           3.7618    1.5932    1.0639 H       1  UNL1        0.0274
     18 H           4.2874    1.1295   -0.5592 H       1  UNL1        0.0274
     19 C           2.1654    1.4294   -0.3768 C.2     1  UNL1       -0.0796
     20 C           1.8423    1.6285   -1.8317 C.3     1  UNL1       -0.0440
     21 H           1.9924    2.6719   -2.1181 H       1  UNL1        0.0274
     22 H           2.5150    1.0314   -2.4511 H       1  UNL1        0.0274
     23 H           0.8219    1.3504   -2.0825 H       1  UNL1        0.0274
     24 C           1.2839    1.0039    0.5476 C.2     1  UNL1       -0.0850
     25 H           1.6477    0.8800    1.5647 H       1  UNL1        0.0572
     26 C          -0.1471    0.6147    0.3243 C.3     1  UNL1       -0.0308
     27 H          -0.7558    0.9594    1.1642 H       1  UNL1        0.0310
     28 H          -0.5531    1.0977   -0.5655 H       1  UNL1        0.0310
@<TRIPOS>BOND
     1    22    20    1
     2    21    20    1
     3    23    20    1
     4     6     5    1
     5     8     5    1
     6    20    19    1
     7     7     5    1
     8     5     4    1
     9     3     1    1
    10    28    26    1
    11    18    15    1
    12    19    15    1
    13    19    24    2
    14    16    15    1
    15     4     1    1
    16     4     9    2
    17    15    17    1
    18     1    26    1
    19     1     2    1
    20    26    24    1
    21    26    27    1
    22    24    25    1
    23    10     9    1
    24     9    11    1
    25    11    14    1
    26    11    13    1
    27    11    12    1
