@<TRIPOS>MOLECULE
/home/jramos/PycharmProjects/GeCos/examples/01-IsoP_trueno_rdkit_mp2/01-IsoP_g16_conformers/01-IsoP_3504_gaussian.xyz
 28 27 0 0 0
SMALL
GASTEIGER

@<TRIPOS>ATOM
      1 C          -0.7866    0.0612   -0.8641 C.3     1  UNL1       -0.0286
      2 H          -0.6745    1.0496   -0.4157 H       1  UNL1        0.0313
      3 H          -0.6368    0.1949   -1.9393 H       1  UNL1        0.0313
      4 C          -2.1621   -0.5055   -0.6174 C.2     1  UNL1       -0.0765
      5 C          -2.6867   -1.4234   -1.6879 C.3     1  UNL1       -0.0438
      6 H          -3.6477   -1.8545   -1.4100 H       1  UNL1        0.0274
      7 H          -1.9897   -2.2428   -1.8771 H       1  UNL1        0.0274
      8 H          -2.8109   -0.8880   -2.6317 H       1  UNL1        0.0274
      9 C          -2.8732   -0.2672    0.5004 C.2     1  UNL1       -0.0881
     10 H          -3.8440   -0.7465    0.5920 H       1  UNL1        0.0569
     11 C          -2.4719    0.5985    1.6560 C.3     1  UNL1       -0.0466
     12 H          -3.1903    1.4064    1.8073 H       1  UNL1        0.0272
     13 H          -1.4894    1.0440    1.5181 H       1  UNL1        0.0272
     14 H          -2.4468    0.0189    2.5808 H       1  UNL1        0.0272
     15 C           2.1509    0.8545    1.5139 C.3     1  UNL1       -0.0440
     16 H           2.8853    0.4721    2.2264 H       1  UNL1        0.0274
     17 H           1.1650    0.5262    1.8330 H       1  UNL1        0.0274
     18 H           2.1818    1.9440    1.5833 H       1  UNL1        0.0274
     19 C           2.4924    0.4150    0.1171 C.2     1  UNL1       -0.0796
     20 C           3.8315    0.8848   -0.3803 C.3     1  UNL1       -0.0440
     21 H           4.6346    0.5242    0.2665 H       1  UNL1        0.0274
     22 H           4.0267    0.5363   -1.3934 H       1  UNL1        0.0274
     23 H           3.8877    1.9757   -0.3762 H       1  UNL1        0.0274
     24 C           1.6932   -0.3420   -0.6581 C.2     1  UNL1       -0.0850
     25 H           2.0436   -0.5753   -1.6605 H       1  UNL1        0.0572
     26 C           0.3254   -0.8531   -0.3152 C.3     1  UNL1       -0.0308
     27 H           0.1941   -0.9518    0.7631 H       1  UNL1        0.0310
     28 H           0.1988   -1.8561   -0.7313 H       1  UNL1        0.0310
@<TRIPOS>BOND
     1     8     5    1
     2     3     1    1
     3     7     5    1
     4     5     6    1
     5     5     4    1
     6    25    24    1
     7    22    20    1
     8     1     4    1
     9     1     2    1
    10     1    26    1
    11    28    26    1
    12    24    26    1
    13    24    19    2
    14     4     9    2
    15    20    23    1
    16    20    19    1
    17    20    21    1
    18    26    27    1
    19    19    15    1
    20     9    10    1
    21     9    11    1
    22    15    18    1
    23    15    17    1
    24    15    16    1
    25    13    11    1
    26    11    12    1
    27    11    14    1
