@<TRIPOS>MOLECULE
/home/jramos/PycharmProjects/GeCos/examples/01-IsoP_trueno_rdkit_mp2/01-IsoP_g16_conformers/01-IsoP_2297_gaussian.xyz
 28 27 0 0 0
SMALL
GASTEIGER

@<TRIPOS>ATOM
      1 C          -0.8597   -0.2834    0.3567 C.3     1  UNL1       -0.0286
      2 H          -0.9926    0.7402    0.7180 H       1  UNL1        0.0313
      3 H          -0.8139   -0.9171    1.2441 H       1  UNL1        0.0313
      4 C          -2.0222   -0.6584   -0.5274 C.2     1  UNL1       -0.0765
      5 C          -2.6023    0.4678   -1.3396 C.3     1  UNL1       -0.0438
      6 H          -3.3847    0.1159   -2.0108 H       1  UNL1        0.0274
      7 H          -3.0275    1.2358   -0.6898 H       1  UNL1        0.0274
      8 H          -1.8321    0.9535   -1.9430 H       1  UNL1        0.0274
      9 C          -2.4990   -1.9118   -0.6438 C.2     1  UNL1       -0.0881
     10 H          -3.3246   -2.0741   -1.3313 H       1  UNL1        0.0569
     11 C          -2.0138   -3.1330    0.0765 C.3     1  UNL1       -0.0466
     12 H          -1.1809   -2.9184    0.7419 H       1  UNL1        0.0272
     13 H          -1.6832   -3.8928   -0.6340 H       1  UNL1        0.0272
     14 H          -2.8137   -3.5797    0.6699 H       1  UNL1        0.0272
     15 C           3.3699    1.4960    1.4969 C.3     1  UNL1       -0.0440
     16 H           3.1246    2.3184    2.1726 H       1  UNL1        0.0274
     17 H           4.2779    1.7853    0.9629 H       1  UNL1        0.0274
     18 H           3.5930    0.6154    2.0973 H       1  UNL1        0.0274
     19 C           2.2430    1.2380    0.5350 C.2     1  UNL1       -0.0796
     20 C           1.8796    2.4091   -0.3351 C.3     1  UNL1       -0.0440
     21 H           1.6235    3.2717    0.2837 H       1  UNL1        0.0274
     22 H           1.0369    2.2061   -0.9910 H       1  UNL1        0.0274
     23 H           2.7301    2.7055   -0.9532 H       1  UNL1        0.0274
     24 C           1.6375    0.0364    0.4865 C.2     1  UNL1       -0.0850
     25 H           1.9796   -0.7236    1.1846 H       1  UNL1        0.0572
     26 C           0.4868   -0.3642   -0.3880 C.3     1  UNL1       -0.0308
     27 H           0.4396    0.2537   -1.2856 H       1  UNL1        0.0310
     28 H           0.6283   -1.3923   -0.7312 H       1  UNL1        0.0310
@<TRIPOS>BOND
     1     6     5    1
     2     8     5    1
     3     5     7    1
     4     5     4    1
     5    10     9    1
     6    27    26    1
     7    22    20    1
     8    23    20    1
     9    28    26    1
    10     9     4    2
    11     9    11    1
    12    13    11    1
    13     4     1    1
    14    26     1    1
    15    26    24    1
    16    20    21    1
    17    20    19    1
    18    11    14    1
    19    11    12    1
    20     1     2    1
    21     1     3    1
    22    24    19    2
    23    24    25    1
    24    19    15    1
    25    17    15    1
    26    15    18    1
    27    15    16    1
