@<TRIPOS>MOLECULE
/home/jramos/PycharmProjects/GeCos/examples/01-IsoP_trueno_rdkit_mp2/01-IsoP_g16_conformers/01-IsoP_3559_gaussian.xyz
 28 27 0 0 0
SMALL
GASTEIGER

@<TRIPOS>ATOM
      1 C           0.0350    0.9753   -0.3411 C.3     1  UNL1       -0.0286
      2 H          -0.2302    1.5860    0.5236 H       1  UNL1        0.0313
      3 H          -0.8709    0.8945   -0.9482 H       1  UNL1        0.0313
      4 C           1.1286    1.6199   -1.1549 C.2     1  UNL1       -0.0765
      5 C           1.1090    1.3014   -2.6256 C.3     1  UNL1       -0.0438
      6 H           0.1990    1.6837   -3.0932 H       1  UNL1        0.0274
      7 H           1.9659    1.7338   -3.1405 H       1  UNL1        0.0274
      8 H           1.1227    0.2221   -2.7935 H       1  UNL1        0.0274
      9 C           2.0987    2.3894   -0.6271 C.2     1  UNL1       -0.0881
     10 H           2.8533    2.7819   -1.3032 H       1  UNL1        0.0569
     11 C           2.2638    2.7736    0.8119 C.3     1  UNL1       -0.0466
     12 H           2.2374    3.8583    0.9317 H       1  UNL1        0.0272
     13 H           3.2295    2.4356    1.1921 H       1  UNL1        0.0272
     14 H           1.4911    2.3462    1.4465 H       1  UNL1        0.0272
     15 C          -2.6551   -2.5089    1.3848 C.3     1  UNL1       -0.0440
     16 H          -3.6489   -2.2782    0.9946 H       1  UNL1        0.0274
     17 H          -2.5899   -3.5967    1.4611 H       1  UNL1        0.0274
     18 H          -2.5760   -2.0911    2.3872 H       1  UNL1        0.0274
     19 C          -1.5842   -1.9715    0.4759 C.2     1  UNL1       -0.0796
     20 C          -1.6249   -2.5078   -0.9282 C.3     1  UNL1       -0.0440
     21 H          -0.8651   -2.0720   -1.5719 H       1  UNL1        0.0274
     22 H          -1.4918   -3.5920   -0.9281 H       1  UNL1        0.0274
     23 H          -2.6001   -2.3097   -1.3780 H       1  UNL1        0.0274
     24 C          -0.6771   -1.0843    0.9262 C.2     1  UNL1       -0.0850
     25 H          -0.7681   -0.7578    1.9592 H       1  UNL1        0.0572
     26 C           0.4238   -0.4356    0.1410 C.3     1  UNL1       -0.0308
     27 H           1.3177   -0.3514    0.7644 H       1  UNL1        0.0310
     28 H           0.7071   -1.0446   -0.7185 H       1  UNL1        0.0310
@<TRIPOS>BOND
     1     7     5    1
     2     6     5    1
     3     8     5    1
     4     5     4    1
     5    21    20    1
     6    23    20    1
     7    10     9    1
     8     4     9    2
     9     4     1    1
    10     3     1    1
    11    20    22    1
    12    20    19    1
    13    28    26    1
    14     9    11    1
    15     1    26    1
    16     1     2    1
    17    26    27    1
    18    26    24    1
    19    19    24    2
    20    19    15    1
    21    11    12    1
    22    11    13    1
    23    11    14    1
    24    24    25    1
    25    16    15    1
    26    15    17    1
    27    15    18    1
