@<TRIPOS>MOLECULE
/home/jramos/PycharmProjects/GeCos/examples/01-IsoP_trueno_rdkit_mp2/01-IsoP_g16_conformers/01-IsoP_2188_gaussian.xyz
 28 27 0 0 0
SMALL
GASTEIGER

@<TRIPOS>ATOM
      1 C           0.4323    0.1868   -0.8310 C.3     1  UNL1       -0.0286
      2 H          -0.3113    0.9725   -0.9907 H       1  UNL1        0.0313
      3 H           0.2775   -0.5463   -1.6246 H       1  UNL1        0.0313
      4 C           1.8154    0.7840   -0.8961 C.2     1  UNL1       -0.0765
      5 C           1.9331    2.1922   -0.3789 C.3     1  UNL1       -0.0438
      6 H           2.9669    2.5352   -0.3826 H       1  UNL1        0.0274
      7 H           1.5553    2.2675    0.6433 H       1  UNL1        0.0274
      8 H           1.3413    2.8797   -0.9871 H       1  UNL1        0.0274
      9 C           2.8988    0.1150   -1.3327 C.2     1  UNL1       -0.0881
     10 H           3.8529    0.6343   -1.3116 H       1  UNL1        0.0569
     11 C           2.9438   -1.2898   -1.8524 C.3     1  UNL1       -0.0466
     12 H           3.6185   -1.9013   -1.2506 H       1  UNL1        0.0272
     13 H           1.9669   -1.7675   -1.8415 H       1  UNL1        0.0272
     14 H           3.3206   -1.3151   -2.8766 H       1  UNL1        0.0272
     15 C          -3.6595   -1.1633    1.1158 C.3     1  UNL1       -0.0440
     16 H          -4.3996   -0.5442    0.6038 H       1  UNL1        0.0274
     17 H          -4.0369   -1.3374    2.1260 H       1  UNL1        0.0274
     18 H          -3.6022   -2.1221    0.6028 H       1  UNL1        0.0274
     19 C          -2.3219   -0.4771    1.1557 C.2     1  UNL1       -0.0796
     20 C          -2.3197    0.8541    1.8548 C.3     1  UNL1       -0.0440
     21 H          -3.0452    1.5244    1.3889 H       1  UNL1        0.0274
     22 H          -1.3497    1.3442    1.8329 H       1  UNL1        0.0274
     23 H          -2.6209    0.7392    2.8984 H       1  UNL1        0.0274
     24 C          -1.2360   -1.0473    0.6004 C.2     1  UNL1       -0.0850
     25 H          -1.3734   -2.0051    0.1046 H       1  UNL1        0.0572
     26 C           0.1502   -0.4792    0.5296 C.3     1  UNL1       -0.0308
     27 H           0.8814   -1.2779    0.6793 H       1  UNL1        0.0310
     28 H           0.3211    0.2448    1.3273 H       1  UNL1        0.0310
@<TRIPOS>BOND
     1    14    11    1
     2    11    13    1
     3    11     9    1
     4    11    12    1
     5     3     1    1
     6     9    10    1
     7     9     4    2
     8     2     1    1
     9     8     5    1
    10     4     1    1
    11     4     5    1
    12     1    26    1
    13     6     5    1
    14     5     7    1
    15    25    24    1
    16    26    24    1
    17    26    27    1
    18    26    28    1
    19    24    19    2
    20    18    15    1
    21    16    15    1
    22    15    19    1
    23    15    17    1
    24    19    20    1
    25    21    20    1
    26    22    20    1
    27    20    23    1
