@<TRIPOS>MOLECULE
/home/jramos/PycharmProjects/GeCos/examples/01-IsoP_trueno_rdkit_mp2/01-IsoP_g16_conformers/01-IsoP_3170_gaussian.xyz
 28 27 0 0 0
SMALL
GASTEIGER

@<TRIPOS>ATOM
      1 C           0.7516    0.4162    0.8205 C.3     1  UNL1       -0.0286
      2 H           0.5985    0.6381    1.8806 H       1  UNL1        0.0313
      3 H           0.3194    1.2524    0.2687 H       1  UNL1        0.0313
      4 C           2.2280    0.2767    0.5468 C.2     1  UNL1       -0.0765
      5 C           3.0470   -0.2827    1.6781 C.3     1  UNL1       -0.0438
      6 H           2.6511   -1.2453    2.0095 H       1  UNL1        0.0274
      7 H           3.0228    0.3849    2.5421 H       1  UNL1        0.0274
      8 H           4.0865   -0.4273    1.3865 H       1  UNL1        0.0274
      9 C           2.7942    0.5734   -0.6378 C.2     1  UNL1       -0.0881
     10 H           3.8637    0.4112   -0.7400 H       1  UNL1        0.0569
     11 C           2.1061    1.1106   -1.8559 C.3     1  UNL1       -0.0466
     12 H           1.0375    1.2436   -1.7031 H       1  UNL1        0.0272
     13 H           2.5271    2.0741   -2.1498 H       1  UNL1        0.0272
     14 H           2.2389    0.4347   -2.7027 H       1  UNL1        0.0272
     15 C          -2.3539   -0.0635   -1.4244 C.3     1  UNL1       -0.0440
     16 H          -1.3244   -0.1090   -1.7706 H       1  UNL1        0.0274
     17 H          -2.7300    0.9434   -1.6181 H       1  UNL1        0.0274
     18 H          -2.9499   -0.7458   -2.0347 H       1  UNL1        0.0274
     19 C          -2.4979   -0.3980    0.0345 C.2     1  UNL1       -0.0796
     20 C          -3.9018   -0.3052    0.5654 C.3     1  UNL1       -0.0440
     21 H          -3.9471   -0.5595    1.6233 H       1  UNL1        0.0274
     22 H          -4.3005    0.7038    0.4380 H       1  UNL1        0.0274
     23 H          -4.5679   -0.9796    0.0223 H       1  UNL1        0.0274
     24 C          -1.4780   -0.7600    0.8355 C.2     1  UNL1       -0.0850
     25 H          -1.7072   -0.9554    1.8800 H       1  UNL1        0.0572
     26 C          -0.0293   -0.8622    0.4604 C.3     1  UNL1       -0.0308
     27 H           0.0951   -1.0574   -0.6055 H       1  UNL1        0.0310
     28 H           0.4203   -1.7120    0.9810 H       1  UNL1        0.0310
@<TRIPOS>BOND
     1    14    11    1
     2    13    11    1
     3    18    15    1
     4    11    12    1
     5    11     9    1
     6    16    15    1
     7    17    15    1
     8    15    19    1
     9    10     9    1
    10     9     4    2
    11    27    26    1
    12    23    20    1
    13    19    20    1
    14    19    24    2
    15     3     1    1
    16    22    20    1
    17    26     1    1
    18    26    24    1
    19    26    28    1
    20     4     1    1
    21     4     5    1
    22    20    21    1
    23     1     2    1
    24    24    25    1
    25     8     5    1
    26     5     6    1
    27     5     7    1
