@<TRIPOS>MOLECULE
/home/jramos/PycharmProjects/GeCos/examples/01-IsoP_trueno_rdkit_mp2/01-IsoP_g16_conformers/01-IsoP_2967_gaussian.xyz
 28 27 0 0 0
SMALL
GASTEIGER

@<TRIPOS>ATOM
      1 C          -0.6480    0.3890   -0.6293 C.3     1  UNL1       -0.0286
      2 H          -0.7104    1.4782   -0.6568 H       1  UNL1        0.0313
      3 H           0.0247    0.1003   -1.4418 H       1  UNL1        0.0313
      4 C          -1.9987   -0.2449   -0.8471 C.2     1  UNL1       -0.0765
      5 C          -1.9754   -1.6012   -1.4984 C.3     1  UNL1       -0.0438
      6 H          -1.5691   -1.5388   -2.5103 H       1  UNL1        0.0274
      7 H          -2.9730   -2.0349   -1.5565 H       1  UNL1        0.0274
      8 H          -1.3379   -2.2925   -0.9426 H       1  UNL1        0.0274
      9 C          -3.1586    0.3129   -0.4528 C.2     1  UNL1       -0.0881
     10 H          -4.0729   -0.2446   -0.6366 H       1  UNL1        0.0569
     11 C          -3.3393    1.6372    0.2247 C.3     1  UNL1       -0.0466
     12 H          -3.9765    2.2955   -0.3688 H       1  UNL1        0.0272
     13 H          -2.3945    2.1480    0.3955 H       1  UNL1        0.0272
     14 H          -3.8275    1.5108    1.1928 H       1  UNL1        0.0272
     15 C           2.7218   -1.4128    0.1646 C.3     1  UNL1       -0.0440
     16 H           3.2917   -2.0022    0.8865 H       1  UNL1        0.0274
     17 H           3.2952   -1.4119   -0.7648 H       1  UNL1        0.0274
     18 H           1.7807   -1.9231   -0.0237 H       1  UNL1        0.0274
     19 C           2.5385   -0.0053    0.6607 C.2     1  UNL1       -0.0796
     20 C           3.8174    0.7545    0.8813 C.3     1  UNL1       -0.0440
     21 H           4.4518    0.2440    1.6095 H       1  UNL1        0.0274
     22 H           4.3927    0.8257   -0.0446 H       1  UNL1        0.0274
     23 H           3.6261    1.7635    1.2433 H       1  UNL1        0.0274
     24 C           1.3443    0.5664    0.9051 C.2     1  UNL1       -0.0850
     25 H           1.3452    1.6003    1.2416 H       1  UNL1        0.0572
     26 C          -0.0110   -0.0440    0.7052 C.3     1  UNL1       -0.0308
     27 H          -0.6743    0.2630    1.5180 H       1  UNL1        0.0310
     28 H           0.0370   -1.1330    0.7449 H       1  UNL1        0.0310
@<TRIPOS>BOND
     1     6     5    1
     2     7     5    1
     3     5     8    1
     4     5     4    1
     5     3     1    1
     6     4     1    1
     7     4     9    2
     8    17    15    1
     9     2     1    1
    10    10     9    1
    11     1    26    1
    12     9    11    1
    13    12    11    1
    14    22    20    1
    15    18    15    1
    16    15    19    1
    17    15    16    1
    18    11    13    1
    19    11    14    1
    20    19    20    1
    21    19    24    2
    22    26    28    1
    23    26    24    1
    24    26    27    1
    25    20    23    1
    26    20    21    1
    27    24    25    1
