@<TRIPOS>MOLECULE
/home/jramos/PycharmProjects/GeCos/examples/01-IsoP_trueno_rdkit_mp2/01-IsoP_g16_conformers/01-IsoP_556_gaussian.xyz
 28 27 0 0 0
SMALL
GASTEIGER

@<TRIPOS>ATOM
      1 C          -0.9458    0.0383   -0.0438 C.3     1  UNL11      -0.0286
      2 H          -1.4470    0.8554    0.4779 H       1  UNL11       0.0313
      3 H          -0.7311    0.4046   -1.0517 H       1  UNL11       0.0313
      4 C          -1.8276   -1.1818   -0.1305 C.2     1  UNL11      -0.0765
      5 C          -1.5937   -2.0608   -1.3293 C.3     1  UNL11      -0.0438
      6 H          -0.5470   -2.3669   -1.3931 H       1  UNL11       0.0274
      7 H          -1.8247   -1.5264   -2.2534 H       1  UNL11       0.0274
      8 H          -2.2065   -2.9605   -1.2921 H       1  UNL11       0.0274
      9 C          -2.7341   -1.5172    0.8063 C.2     1  UNL11      -0.0881
     10 H          -3.2977   -2.4337    0.6557 H       1  UNL11       0.0569
     11 C          -3.0615   -0.7605    2.0577 C.3     1  UNL11      -0.0466
     12 H          -2.4625    0.1406    2.1662 H       1  UNL11       0.0272
     13 H          -2.8890   -1.3812    2.9388 H       1  UNL11       0.0272
     14 H          -4.1138   -0.4706    2.0744 H       1  UNL11       0.0272
     15 C           3.0704    2.5312    0.0594 C.3     1  UNL11      -0.0440
     16 H           2.7017    3.1149    0.9016 H       1  UNL11       0.0274
     17 H           4.1294    2.3212    0.2259 H       1  UNL11       0.0274
     18 H           3.0080    3.1490   -0.8393 H       1  UNL11       0.0274
     19 C           2.2926    1.2556   -0.1116 C.2     1  UNL11      -0.0796
     20 C           2.7479    0.3910   -1.2544 C.3     1  UNL11      -0.0440
     21 H           2.1425   -0.5034   -1.3781 H       1  UNL11       0.0274
     22 H           2.7106    0.9538   -2.1894 H       1  UNL11       0.0274
     23 H           3.7863    0.0837   -1.1121 H       1  UNL11       0.0274
     24 C           1.2781    0.9484    0.7186 C.2     1  UNL11      -0.0850
     25 H           1.0326    1.6689    1.4949 H       1  UNL11       0.0572
     26 C           0.3924   -0.2604    0.6592 C.3     1  UNL11      -0.0308
     27 H           0.8888   -1.0887    0.1520 H       1  UNL11       0.0310
     28 H           0.1776   -0.6072    1.6734 H       1  UNL11       0.0310
@<TRIPOS>BOND
     1     3     1    1
     2     2     1    1
     3    18    15    1
     4     7     5    1
     5    14    11    1
     6     1     4    1
     7     1    26    1
     8    12    11    1
     9    16    15    1
    10    22    20    1
    11     4     5    1
    12     4     9    2
    13    15    19    1
    14    15    17    1
    15    11     9    1
    16    11    13    1
    17     5     8    1
    18     5     6    1
    19     9    10    1
    20    25    24    1
    21    19    24    2
    22    19    20    1
    23    24    26    1
    24    20    21    1
    25    20    23    1
    26    26    27    1
    27    26    28    1
