@<TRIPOS>MOLECULE
/home/jramos/PycharmProjects/GeCos/examples/01-IsoP_trueno_rdkit_mp2/01-IsoP_g16_conformers/01-IsoP_1471_gaussian.xyz
 28 27 0 0 0
SMALL
GASTEIGER

@<TRIPOS>ATOM
      1 C          -0.7412    0.1752    0.5890 C.3     1  UNL1       -0.0286
      2 H          -0.8913    1.2131    0.8915 H       1  UNL1        0.0313
      3 H          -0.1406   -0.2892    1.3760 H       1  UNL1        0.0313
      4 C          -2.0538   -0.5559    0.4620 C.2     1  UNL1       -0.0765
      5 C          -1.9955   -2.0347    0.7347 C.3     1  UNL1       -0.0438
      6 H          -1.7080   -2.2272    1.7706 H       1  UNL1        0.0274
      7 H          -1.2490   -2.5210    0.1026 H       1  UNL1        0.0274
      8 H          -2.9564   -2.5139    0.5515 H       1  UNL1        0.0274
      9 C          -3.2039    0.0326    0.0841 C.2     1  UNL1       -0.0881
     10 H          -4.0863   -0.5956   -0.0005 H       1  UNL1        0.0569
     11 C          -3.4128    1.4803   -0.2417 C.3     1  UNL1       -0.0466
     12 H          -2.4980    2.0615   -0.1530 H       1  UNL1        0.0272
     13 H          -4.1605    1.9248    0.4178 H       1  UNL1        0.0272
     14 H          -3.7811    1.5956   -1.2627 H       1  UNL1        0.0272
     15 C           2.8258   -1.1886   -0.2166 C.3     1  UNL1       -0.0440
     16 H           3.2926   -1.4104    0.7454 H       1  UNL1        0.0274
     17 H           3.5153   -1.5355   -0.9895 H       1  UNL1        0.0274
     18 H           1.9126   -1.7740   -0.2879 H       1  UNL1        0.0274
     19 C           2.5880    0.2903   -0.3474 C.2     1  UNL1       -0.0796
     20 C           3.8199    1.1400   -0.1993 C.3     1  UNL1       -0.0440
     21 H           3.5907    2.1991   -0.3068 H       1  UNL1        0.0274
     22 H           4.2834    0.9869    0.7778 H       1  UNL1        0.0274
     23 H           4.5679    0.8737   -0.9496 H       1  UNL1        0.0274
     24 C           1.3864    0.8504   -0.5826 C.2     1  UNL1       -0.0850
     25 H           1.3431    1.9355   -0.6349 H       1  UNL1        0.0572
     26 C           0.0694    0.1464   -0.7211 C.3     1  UNL1       -0.0308
     27 H          -0.5234    0.6290   -1.5025 H       1  UNL1        0.0310
     28 H           0.2066   -0.8885   -1.0371 H       1  UNL1        0.0310
@<TRIPOS>BOND
     1    27    26    1
     2    14    11    1
     3    28    26    1
     4    17    15    1
     5    23    20    1
     6    26    24    1
     7    26     1    1
     8    25    24    1
     9    24    19    2
    10    19    15    1
    11    19    20    1
    12    21    20    1
    13    18    15    1
    14    11    12    1
    15    11     9    1
    16    11    13    1
    17    15    16    1
    18    20    22    1
    19    10     9    1
    20     9     4    2
    21     7     5    1
    22     4     1    1
    23     4     5    1
    24     8     5    1
    25     1     2    1
    26     1     3    1
    27     5     6    1
