@<TRIPOS>MOLECULE
/home/jramos/PycharmProjects/GeCos/examples/01-IsoP_trueno_rdkit_mp2/01-IsoP_g16_conformers/01-IsoP_470_gaussian.xyz
 28 27 0 0 0
SMALL
GASTEIGER

@<TRIPOS>ATOM
      1 C           0.0261   -0.8078   -0.8457 C.3     1  UNL1       -0.0286
      2 H          -0.5675   -1.7191   -0.9624 H       1  UNL1        0.0313
      3 H          -0.6155    0.0163   -1.1615 H       1  UNL1        0.0313
      4 C           1.2642   -0.9045   -1.7011 C.2     1  UNL1       -0.0765
      5 C           1.8250   -2.2895   -1.8759 C.3     1  UNL1       -0.0438
      6 H           1.1159   -2.9319   -2.4026 H       1  UNL1        0.0274
      7 H           2.7575   -2.2759   -2.4386 H       1  UNL1        0.0274
      8 H           2.0198   -2.7580   -0.9086 H       1  UNL1        0.0274
      9 C           1.8790    0.1650   -2.2399 C.2     1  UNL1       -0.0881
     10 H           2.7818   -0.0110   -2.8184 H       1  UNL1        0.0569
     11 C           1.4546    1.5981   -2.1306 C.3     1  UNL1       -0.0466
     12 H           0.5537    1.7188   -1.5332 H       1  UNL1        0.0272
     13 H           2.2413    2.1986   -1.6700 H       1  UNL1        0.0272
     14 H           1.2649    2.0260   -3.1169 H       1  UNL1        0.0272
     15 C          -1.1803    1.8623    1.6700 C.3     1  UNL1       -0.0440
     16 H          -0.2976    1.9546    1.0421 H       1  UNL1        0.0274
     17 H          -0.9920    2.3961    2.6043 H       1  UNL1        0.0274
     18 H          -2.0033    2.3793    1.1718 H       1  UNL1        0.0274
     19 C          -1.5579    0.4332    1.9455 C.2     1  UNL1       -0.0796
     20 C          -2.7996    0.2597    2.7758 C.3     1  UNL1       -0.0440
     21 H          -2.6887    0.7471    3.7472 H       1  UNL1        0.0274
     22 H          -3.0237   -0.7923    2.9455 H       1  UNL1        0.0274
     23 H          -3.6619    0.7196    2.2877 H       1  UNL1        0.0274
     24 C          -0.8649   -0.6342    1.5061 C.2     1  UNL1       -0.0850
     25 H          -1.2530   -1.6191    1.7534 H       1  UNL1        0.0572
     26 C           0.3638   -0.6198    0.6458 C.3     1  UNL1       -0.0308
     27 H           1.0364   -1.4216    0.9619 H       1  UNL1        0.0310
     28 H           0.9223    0.3098    0.7617 H       1  UNL1        0.0310
@<TRIPOS>BOND
     1    14    11    1
     2    10     9    1
     3     7     5    1
     4     6     5    1
     5     9    11    1
     6     9     4    2
     7    11    13    1
     8    11    12    1
     9     5     4    1
    10     5     8    1
    11     4     1    1
    12     3     1    1
    13     2     1    1
    14     1    26    1
    15    26    28    1
    16    26    27    1
    17    26    24    1
    18    16    15    1
    19    18    15    1
    20    24    25    1
    21    24    19    2
    22    15    19    1
    23    15    17    1
    24    19    20    1
    25    23    20    1
    26    20    22    1
    27    20    21    1
