@<TRIPOS>MOLECULE
/home/jramos/PycharmProjects/GeCos/examples/01-IsoP_trueno_rdkit_mp2/01-IsoP_g16_conformers/01-IsoP_493_gaussian.xyz
 28 27 0 0 0
SMALL
GASTEIGER

@<TRIPOS>ATOM
      1 C           0.1360   -0.1848   -1.1604 C.3     1  UNL1       -0.0286
      2 H           1.0453   -0.3240   -1.7522 H       1  UNL1        0.0313
      3 H          -0.1332   -1.1709   -0.7788 H       1  UNL1        0.0313
      4 C          -0.9499    0.3842   -2.0385 C.2     1  UNL1       -0.0765
      5 C          -0.4821    1.2969   -3.1391 C.3     1  UNL1       -0.0438
      6 H           0.1466    0.7568   -3.8505 H       1  UNL1        0.0274
      7 H           0.1214    2.1149   -2.7394 H       1  UNL1        0.0274
      8 H          -1.3202    1.7301   -3.6835 H       1  UNL1        0.0274
      9 C          -2.2611    0.1520   -1.8414 C.2     1  UNL1       -0.0881
     10 H          -2.9650    0.6324   -2.5154 H       1  UNL1        0.0569
     11 C          -2.8740   -0.7080   -0.7781 C.3     1  UNL1       -0.0466
     12 H          -2.1273   -1.1550   -0.1256 H       1  UNL1        0.0272
     13 H          -3.4628   -1.5147   -1.2188 H       1  UNL1        0.0272
     14 H          -3.5530   -0.1238   -0.1542 H       1  UNL1        0.0272
     15 C           0.2644   -0.9679    2.6190 C.3     1  UNL1       -0.0440
     16 H           0.2099   -0.5824    3.6396 H       1  UNL1        0.0274
     17 H          -0.6218   -0.6374    2.0831 H       1  UNL1        0.0274
     18 H           0.2276   -2.0571    2.6909 H       1  UNL1        0.0274
     19 C           1.5446   -0.5358    1.9594 C.2     1  UNL1       -0.0796
     20 C           2.7964   -1.0090    2.6452 C.3     1  UNL1       -0.0440
     21 H           3.6906   -0.6658    2.1271 H       1  UNL1        0.0274
     22 H           2.8364   -0.6456    3.6746 H       1  UNL1        0.0274
     23 H           2.8255   -2.0999    2.6934 H       1  UNL1        0.0274
     24 C           1.6088    0.2179    0.8455 C.2     1  UNL1       -0.0850
     25 H           2.5962    0.4458    0.4518 H       1  UNL1        0.0572
     26 C           0.4549    0.7316    0.0365 C.3     1  UNL1       -0.0308
     27 H           0.6904    1.7326   -0.3349 H       1  UNL1        0.0310
     28 H          -0.4446    0.8359    0.6443 H       1  UNL1        0.0310
@<TRIPOS>BOND
     1     6     5    1
     2     8     5    1
     3     5     7    1
     4     5     4    1
     5    10     9    1
     6     4     9    2
     7     4     1    1
     8     9    11    1
     9     2     1    1
    10    13    11    1
    11     1     3    1
    12     1    26    1
    13    11    14    1
    14    11    12    1
    15    27    26    1
    16    26    28    1
    17    26    24    1
    18    25    24    1
    19    24    19    2
    20    19    15    1
    21    19    20    1
    22    17    15    1
    23    21    20    1
    24    15    18    1
    25    15    16    1
    26    20    23    1
    27    20    22    1
