@<TRIPOS>MOLECULE
/home/jramos/PycharmProjects/GeCos/examples/01-IsoP_trueno_rdkit_mp2/01-IsoP_g16_conformers/01-IsoP_2203_gaussian.xyz
 28 27 0 0 0
SMALL
GASTEIGER

@<TRIPOS>ATOM
      1 C          -0.3999   -0.8079    0.5686 C.3     1  UNL11      -0.0286
      2 H          -0.5204   -0.7213    1.6498 H       1  UNL11       0.0313
      3 H           0.5156   -1.3839    0.4077 H       1  UNL11       0.0313
      4 C          -1.5648   -1.5316   -0.0584 C.2     1  UNL11      -0.0765
      5 C          -1.2455   -2.2995   -1.3125 C.3     1  UNL11      -0.0438
      6 H          -0.7774   -1.6541   -2.0593 H       1  UNL11       0.0274
      7 H          -2.1410   -2.7334   -1.7554 H       1  UNL11       0.0274
      8 H          -0.5400   -3.1068   -1.1041 H       1  UNL11       0.0274
      9 C          -2.8233   -1.4741    0.4155 C.2     1  UNL11      -0.0881
     10 H          -3.5919   -2.0137   -0.1311 H       1  UNL11       0.0569
     11 C          -3.2976   -0.7371    1.6311 C.3     1  UNL11      -0.0466
     12 H          -2.4932   -0.2054    2.1338 H       1  UNL11       0.0272
     13 H          -3.7512   -1.4218    2.3503 H       1  UNL11       0.0272
     14 H          -4.0621   -0.0054    1.3635 H       1  UNL11       0.0272
     15 C           2.6442    0.8202   -1.2523 C.3     1  UNL11      -0.0440
     16 H           3.4849    0.1374   -1.1125 H       1  UNL11       0.0274
     17 H           1.8489    0.2733   -1.7521 H       1  UNL11       0.0274
     18 H           2.9882    1.6115   -1.9221 H       1  UNL11       0.0274
     19 C           2.2203    1.3965    0.0703 C.2     1  UNL11      -0.0796
     20 C           3.3084    2.1147    0.8201 C.3     1  UNL11      -0.0440
     21 H           3.7063    2.9425    0.2288 H       1  UNL11       0.0274
     22 H           4.1450    1.4443    1.0291 H       1  UNL11       0.0274
     23 H           2.9459    2.5141    1.7660 H       1  UNL11       0.0274
     24 C           0.9767    1.3040    0.5778 C.2     1  UNL11      -0.0850
     25 H           0.8025    1.7455    1.5560 H       1  UNL11       0.0572
     26 C          -0.1996    0.5984   -0.0284 C.3     1  UNL11      -0.0308
     27 H          -0.0967    0.5187   -1.1114 H       1  UNL11       0.0310
     28 H          -1.1077    1.1800    0.1506 H       1  UNL11       0.0310
@<TRIPOS>BOND
     1    18    15    1
     2     6     5    1
     3    17    15    1
     4     7     5    1
     5    15    16    1
     6    15    19    1
     7    27    26    1
     8     5     8    1
     9     5     4    1
    10    26    28    1
    11    26    24    1
    12    26     1    1
    13    21    20    1
    14    19    24    2
    15    19    20    1
    16    10     9    1
    17     4     9    2
    18     4     1    1
    19    24    25    1
    20     9    11    1
    21     3     1    1
    22    20    22    1
    23    20    23    1
    24     1     2    1
    25    14    11    1
    26    11    12    1
    27    11    13    1
