@<TRIPOS>MOLECULE
/home/jramos/PycharmProjects/GeCos/examples/01-IsoP_trueno_rdkit_mp2/01-IsoP_g16_conformers/01-IsoP_2527_gaussian.xyz
 28 27 0 0 0
SMALL
GASTEIGER

@<TRIPOS>ATOM
      1 C          -0.2710   -1.1089   -0.0374 C.3     1  UNL11      -0.0286
      2 H           0.1131   -1.0649    0.9829 H       1  UNL11       0.0313
      3 H           0.3185   -1.8723   -0.5532 H       1  UNL11       0.0313
      4 C          -1.7275   -1.4991   -0.0640 C.2     1  UNL11      -0.0765
      5 C          -2.1717   -2.2638   -1.2811 C.3     1  UNL11      -0.0438
      6 H          -1.9296   -1.7185   -2.1960 H       1  UNL11       0.0274
      7 H          -1.6616   -3.2276   -1.3415 H       1  UNL11       0.0274
      8 H          -3.2456   -2.4452   -1.2700 H       1  UNL11       0.0274
      9 C          -2.6057   -1.1535    0.8958 C.2     1  UNL11      -0.0881
     10 H          -3.6397   -1.4618    0.7677 H       1  UNL11       0.0569
     11 C          -2.3166   -0.3762    2.1440 C.3     1  UNL11      -0.0466
     12 H          -2.5667   -0.9577    3.0335 H       1  UNL11       0.0272
     13 H          -1.2716   -0.0836    2.2170 H       1  UNL11       0.0272
     14 H          -2.9193    0.5333    2.1796 H       1  UNL11       0.0272
     15 C           3.6146    1.5629   -0.0974 C.3     1  UNL11      -0.0440
     16 H           3.8402    2.6263   -0.2049 H       1  UNL11       0.0274
     17 H           3.9900    1.0436   -0.9778 H       1  UNL11       0.0274
     18 H           4.1705    1.2080    0.7732 H       1  UNL11       0.0274
     19 C           2.1377    1.3453    0.0844 C.2     1  UNL11      -0.0796
     20 C           1.5430    2.0353    1.2807 C.3     1  UNL11      -0.0440
     21 H           2.0535    1.7151    2.1917 H       1  UNL11       0.0274
     22 H           1.6788    3.1165    1.2065 H       1  UNL11       0.0274
     23 H           0.4818    1.8336    1.4028 H       1  UNL11       0.0274
     24 C           1.4384    0.5879   -0.7816 C.2     1  UNL11      -0.0850
     25 H           1.9876    0.1229   -1.5964 H       1  UNL11       0.0572
     26 C          -0.0223    0.2539   -0.7119 C.3     1  UNL11      -0.0308
     27 H          -0.5818    1.0175   -0.1703 H       1  UNL11       0.0310
     28 H          -0.4371    0.2311   -1.7232 H       1  UNL11       0.0310
@<TRIPOS>BOND
     1     7     5    1
     2    12    11    1
     3     8     5    1
     4     3     1    1
     5     5     4    1
     6     5     6    1
     7    10     9    1
     8     2     1    1
     9     4     9    2
    10     4     1    1
    11     9    11    1
    12     1    26    1
    13    11    13    1
    14    11    14    1
    15    26    24    1
    16    26    28    1
    17    26    27    1
    18    25    24    1
    19    18    15    1
    20    24    19    2
    21    21    20    1
    22    17    15    1
    23    19    15    1
    24    19    20    1
    25    23    20    1
    26    15    16    1
    27    20    22    1
