@<TRIPOS>MOLECULE
/home/jramos/PycharmProjects/GeCos/examples/01-IsoP_trueno_rdkit_mp2/01-IsoP_g16_conformers/01-IsoP_798_gaussian.xyz
 28 27 0 0 0
SMALL
GASTEIGER

@<TRIPOS>ATOM
      1 C          -0.8507   -0.1538   -0.7924 C.3     1  UNL1       -0.0286
      2 H          -0.7848   -0.4301   -1.8487 H       1  UNL1        0.0313
      3 H          -0.7197   -1.0778   -0.2270 H       1  UNL1        0.0313
      4 C          -2.1949    0.4742   -0.5227 C.2     1  UNL1       -0.0765
      5 C          -2.7853    1.2574   -1.6635 C.3     1  UNL1       -0.0438
      6 H          -2.0924    2.0277   -2.0095 H       1  UNL1        0.0274
      7 H          -2.9887    0.6069   -2.5168 H       1  UNL1        0.0274
      8 H          -3.7159    1.7448   -1.3753 H       1  UNL1        0.0274
      9 C          -2.8228    0.4013    0.6658 C.2     1  UNL1       -0.0881
     10 H          -3.7765    0.9123    0.7643 H       1  UNL1        0.0569
     11 C          -2.3481   -0.3161    1.8930 C.3     1  UNL1       -0.0466
     12 H          -1.3855   -0.8000    1.7435 H       1  UNL1        0.0272
     13 H          -2.2443    0.3783    2.7290 H       1  UNL1        0.0272
     14 H          -3.0649   -1.0794    2.2016 H       1  UNL1        0.0272
     15 C           3.7780   -1.0215   -0.5435 C.3     1  UNL1       -0.0440
     16 H           3.8180   -2.1036   -0.3997 H       1  UNL1        0.0274
     17 H           3.9011   -0.8130   -1.6051 H       1  UNL1        0.0274
     18 H           4.6330   -0.5997   -0.0103 H       1  UNL1        0.0274
     19 C           2.4876   -0.4578   -0.0157 C.2     1  UNL1       -0.0796
     20 C           2.2464   -0.7030    1.4481 C.3     1  UNL1       -0.0440
     21 H           1.2925   -0.3116    1.7924 H       1  UNL1        0.0274
     22 H           2.2661   -1.7746    1.6581 H       1  UNL1        0.0274
     23 H           3.0384   -0.2493    2.0483 H       1  UNL1        0.0274
     24 C           1.6434    0.2113   -0.8234 C.2     1  UNL1       -0.0850
     25 H           1.9202    0.3032   -1.8706 H       1  UNL1        0.0572
     26 C           0.3133    0.7964   -0.4516 C.3     1  UNL1       -0.0308
     27 H           0.2656    1.0381    0.6109 H       1  UNL1        0.0310
     28 H           0.1705    1.7395   -0.9860 H       1  UNL1        0.0310
@<TRIPOS>BOND
     1     7     5    1
     2     6     5    1
     3    25    24    1
     4     2     1    1
     5     5     8    1
     6     5     4    1
     7    17    15    1
     8    28    26    1
     9    24    26    1
    10    24    19    2
    11     1     4    1
    12     1    26    1
    13     1     3    1
    14    15    16    1
    15    15    19    1
    16    15    18    1
    17     4     9    2
    18    26    27    1
    19    19    20    1
    20     9    10    1
    21     9    11    1
    22    20    22    1
    23    20    21    1
    24    20    23    1
    25    12    11    1
    26    11    14    1
    27    11    13    1
