@<TRIPOS>MOLECULE
/home/jramos/PycharmProjects/GeCos/examples/01-IsoP_trueno_rdkit_mp2/01-IsoP_g16_conformers/01-IsoP_2927_gaussian.xyz
 28 27 0 0 0
SMALL
GASTEIGER

@<TRIPOS>ATOM
      1 C           0.9020    0.7454   -0.0046 C.3     1  UNL1       -0.0286
      2 H           0.5997    0.5478   -1.0342 H       1  UNL1        0.0313
      3 H           0.9119    1.8334    0.1074 H       1  UNL1        0.0313
      4 C           2.2786    0.2006    0.2822 C.2     1  UNL1       -0.0765
      5 C           3.0762    0.9608    1.3065 C.3     1  UNL1       -0.0438
      6 H           4.0253    0.4704    1.5195 H       1  UNL1        0.0274
      7 H           3.2845    1.9758    0.9613 H       1  UNL1        0.0274
      8 H           2.5238    1.0515    2.2444 H       1  UNL1        0.0274
      9 C           2.7663   -0.9188   -0.2843 C.2     1  UNL1       -0.0881
     10 H           3.7607   -1.2415    0.0115 H       1  UNL1        0.0569
     11 C           2.0820   -1.7891   -1.2944 C.3     1  UNL1       -0.0466
     12 H           1.0875   -1.4278   -1.5465 H       1  UNL1        0.0272
     13 H           2.6629   -1.8486   -2.2168 H       1  UNL1        0.0272
     14 H           1.9793   -2.8086   -0.9178 H       1  UNL1        0.0272
     15 C          -3.7993    1.0663   -0.1901 C.3     1  UNL1       -0.0440
     16 H          -3.9878    1.3134   -1.2373 H       1  UNL1        0.0274
     17 H          -4.6460    0.4659    0.1506 H       1  UNL1        0.0274
     18 H          -3.7852    1.9924    0.3824 H       1  UNL1        0.0274
     19 C          -2.5105    0.3056   -0.0424 C.2     1  UNL1       -0.0796
     20 C          -2.4542   -0.9900   -0.8034 C.3     1  UNL1       -0.0440
     21 H          -1.4998   -1.5005   -0.7021 H       1  UNL1        0.0274
     22 H          -3.2415   -1.6676   -0.4654 H       1  UNL1        0.0274
     23 H          -2.6282   -0.8095   -1.8664 H       1  UNL1        0.0274
     24 C          -1.5110    0.7807    0.7244 C.2     1  UNL1       -0.0850
     25 H          -1.6645    1.7425    1.2072 H       1  UNL1        0.0572
     26 C          -0.1641    0.1563    0.9389 C.3     1  UNL1       -0.0308
     27 H          -0.1969   -0.9244    0.7954 H       1  UNL1        0.0310
     28 H           0.1489    0.3176    1.9740 H       1  UNL1        0.0310
@<TRIPOS>BOND
     1    13    11    1
     2    23    20    1
     3    12    11    1
     4    11    14    1
     5    11     9    1
     6    16    15    1
     7     2     1    1
     8    20    21    1
     9    20    22    1
    10    20    19    1
    11     9    10    1
    12     9     4    2
    13    15    19    1
    14    15    17    1
    15    15    18    1
    16    19    24    2
    17     1     3    1
    18     1     4    1
    19     1    26    1
    20     4     5    1
    21    24    26    1
    22    24    25    1
    23    27    26    1
    24    26    28    1
    25     7     5    1
    26     5     6    1
    27     5     8    1
