@<TRIPOS>MOLECULE
/home/jramos/PycharmProjects/GeCos/examples/01-IsoP_trueno_rdkit_mp2/01-IsoP_g16_conformers/01-IsoP_3819_gaussian.xyz
 28 27 0 0 0
SMALL
GASTEIGER

@<TRIPOS>ATOM
      1 C          -0.3494   -0.8934    0.4259 C.3     1  UNL11      -0.0286
      2 H          -0.1775   -1.1278    1.4779 H       1  UNL11       0.0313
      3 H           0.4323   -1.4130   -0.1352 H       1  UNL11       0.0313
      4 C          -1.7020   -1.3781   -0.0315 C.2     1  UNL11      -0.0765
      5 C          -1.7945   -1.7471   -1.4875 C.3     1  UNL11      -0.0438
      6 H          -2.8122   -2.0143   -1.7691 H       1  UNL11       0.0274
      7 H          -1.1421   -2.5929   -1.7156 H       1  UNL11       0.0274
      8 H          -1.4740   -0.9187   -2.1233 H       1  UNL11       0.0274
      9 C          -2.7835   -1.4399    0.7674 C.2     1  UNL11      -0.0881
     10 H          -3.7164   -1.7798    0.3259 H       1  UNL11       0.0569
     11 C          -2.8530   -1.0862    2.2219 C.3     1  UNL11      -0.0466
     12 H          -3.1705   -1.9442    2.8176 H       1  UNL11       0.0272
     13 H          -3.5848   -0.2941    2.3908 H       1  UNL11       0.0272
     14 H          -1.8978   -0.7416    2.6110 H       1  UNL11       0.0272
     15 C           3.5670    1.7556    0.4505 C.3     1  UNL11      -0.0440
     16 H           4.3591    1.0381    0.2250 H       1  UNL11       0.0274
     17 H           3.8782    2.7137    0.0280 H       1  UNL11       0.0274
     18 H           3.5022    1.8645    1.5320 H       1  UNL11       0.0274
     19 C           2.2571    1.3112   -0.1396 C.2     1  UNL11      -0.0796
     20 C           2.2662    1.1434   -1.6338 C.3     1  UNL11      -0.0440
     21 H           1.3189    0.7833   -2.0269 H       1  UNL11       0.0274
     22 H           3.0430    0.4344   -1.9275 H       1  UNL11       0.0274
     23 H           2.5016    2.0907   -2.1241 H       1  UNL11       0.0274
     24 C           1.1837    1.0958    0.6443 C.2     1  UNL11      -0.0850
     25 H           1.3123    1.2319    1.7153 H       1  UNL11       0.0572
     26 C          -0.1728    0.6226    0.2140 C.3     1  UNL11      -0.0308
     27 H          -0.3613    0.8643   -0.8328 H       1  UNL11       0.0310
     28 H          -0.9420    1.1420    0.7915 H       1  UNL11       0.0310
@<TRIPOS>BOND
     1    28    26    1
     2    13    11    1
     3    17    15    1
     4    25    24    1
     5    18    15    1
     6    24    26    1
     7    24    19    2
     8    15    19    1
     9    15    16    1
    10    14    11    1
    11    26    27    1
    12    26     1    1
    13    11    12    1
    14    11     9    1
    15    23    20    1
    16    19    20    1
    17    20    21    1
    18    20    22    1
    19     9    10    1
    20     9     4    2
    21     2     1    1
    22     1     4    1
    23     1     3    1
    24     4     5    1
    25     8     5    1
    26     5     6    1
    27     5     7    1
