@<TRIPOS>MOLECULE
/home/jramos/PycharmProjects/GeCos/examples/01-IsoP_trueno_rdkit_mp2/01-IsoP_g16_conformers/01-IsoP_845_gaussian.xyz
 28 27 0 0 0
SMALL
GASTEIGER

@<TRIPOS>ATOM
      1 C           0.8132   -0.4973    0.1149 C.3     1  UNL1       -0.0286
      2 H           0.2899   -1.4155   -0.1659 H       1  UNL1        0.0313
      3 H           1.0344   -0.5852    1.1800 H       1  UNL1        0.0313
      4 C           2.0754   -0.3697   -0.7001 C.2     1  UNL1       -0.0765
      5 C           1.9951   -0.9155   -2.1002 C.3     1  UNL1       -0.0438
      6 H           1.1642   -0.4667   -2.6492 H       1  UNL1        0.0274
      7 H           2.9108   -0.7237   -2.6580 H       1  UNL1        0.0274
      8 H           1.8209   -1.9937   -2.0870 H       1  UNL1        0.0274
      9 C           3.1954    0.2298   -0.2550 C.2     1  UNL1       -0.0881
     10 H           4.0391    0.2895   -0.9370 H       1  UNL1        0.0569
     11 C           3.4180    0.8377    1.0965 C.3     1  UNL1       -0.0466
     12 H           4.2518    0.3544    1.6092 H       1  UNL1        0.0272
     13 H           2.5410    0.7618    1.7349 H       1  UNL1        0.0272
     14 H           3.6714    1.8955    1.0055 H       1  UNL1        0.0272
     15 C          -2.8694   -0.3389   -1.1678 C.3     1  UNL1       -0.0440
     16 H          -3.2311   -1.3692   -1.1864 H       1  UNL1        0.0274
     17 H          -3.6548    0.2793   -1.6084 H       1  UNL1        0.0274
     18 H          -1.9922   -0.2810   -1.8071 H       1  UNL1        0.0274
     19 C          -2.5947    0.0873    0.2477 C.2     1  UNL1       -0.0796
     20 C          -3.7701   -0.0304    1.1785 C.3     1  UNL1       -0.0440
     21 H          -4.1243   -1.0625    1.2298 H       1  UNL1        0.0274
     22 H          -4.6080    0.5744    0.8244 H       1  UNL1        0.0274
     23 H          -3.5165    0.2945    2.1864 H       1  UNL1        0.0274
     24 C          -1.4084    0.5475    0.6877 C.2     1  UNL1       -0.0850
     25 H          -1.3320    0.8037    1.7416 H       1  UNL1        0.0572
     26 C          -0.1422    0.6918   -0.1030 C.3     1  UNL1       -0.0308
     27 H          -0.3519    0.7948   -1.1684 H       1  UNL1        0.0310
     28 H           0.3747    1.6071    0.1971 H       1  UNL1        0.0310
@<TRIPOS>BOND
     1     7     5    1
     2     6     5    1
     3     5     8    1
     4     5     4    1
     5    18    15    1
     6    17    15    1
     7    16    15    1
     8    27    26    1
     9    15    19    1
    10    10     9    1
    11     4     9    2
    12     4     1    1
    13     9    11    1
    14     2     1    1
    15    26     1    1
    16    26    28    1
    17    26    24    1
    18     1     3    1
    19    19    24    2
    20    19    20    1
    21    24    25    1
    22    22    20    1
    23    14    11    1
    24    11    12    1
    25    11    13    1
    26    20    21    1
    27    20    23    1
