@<TRIPOS>MOLECULE
/home/jramos/PycharmProjects/GeCos/examples/01-IsoP_trueno_rdkit_mp2/01-IsoP_g16_conformers/01-IsoP_2638_gaussian.xyz
 28 27 0 0 0
SMALL
GASTEIGER

@<TRIPOS>ATOM
      1 C           0.7832   -0.8045   -0.3296 C.3     1  UNL1       -0.0286
      2 H           0.6490   -0.0868   -1.1405 H       1  UNL1        0.0313
      3 H           0.6280   -1.7942   -0.7688 H       1  UNL1        0.0313
      4 C           2.1721   -0.7280    0.2528 C.2     1  UNL1       -0.0765
      5 C           2.7156   -2.0177    0.8047 C.3     1  UNL1       -0.0438
      6 H           2.8254   -2.7628    0.0137 H       1  UNL1        0.0274
      7 H           3.6870   -1.8737    1.2762 H       1  UNL1        0.0274
      8 H           2.0376   -2.4419    1.5485 H       1  UNL1        0.0274
      9 C           2.8797    0.4141    0.3361 C.2     1  UNL1       -0.0881
     10 H           3.8616    0.3660    0.7988 H       1  UNL1        0.0569
     11 C           2.4608    1.7706   -0.1437 C.3     1  UNL1       -0.0466
     12 H           1.4678    1.7645   -0.5875 H       1  UNL1        0.0272
     13 H           2.4511    2.4850    0.6817 H       1  UNL1        0.0272
     14 H           3.1604    2.1553   -0.8882 H       1  UNL1        0.0272
     15 C          -2.1671    1.6874   -0.3241 C.3     1  UNL1       -0.0440
     16 H          -2.8909    2.2531    0.2669 H       1  UNL1        0.0274
     17 H          -2.2232    2.0726   -1.3445 H       1  UNL1        0.0274
     18 H          -1.1731    1.9011    0.0605 H       1  UNL1        0.0274
     19 C          -2.5011    0.2215   -0.3053 C.2     1  UNL1       -0.0796
     20 C          -3.8519   -0.1231   -0.8693 C.3     1  UNL1       -0.0440
     21 H          -4.0411   -1.1947   -0.8284 H       1  UNL1        0.0274
     22 H          -4.6450    0.3859   -0.3167 H       1  UNL1        0.0274
     23 H          -3.9335    0.2000   -1.9096 H       1  UNL1        0.0274
     24 C          -1.6862   -0.7376    0.1730 C.2     1  UNL1       -0.0850
     25 H          -2.0330   -1.7660    0.1105 H       1  UNL1        0.0572
     26 C          -0.3060   -0.5527    0.7306 C.3     1  UNL1       -0.0308
     27 H          -0.1702    0.4500    1.1378 H       1  UNL1        0.0310
     28 H          -0.1570   -1.2437    1.5646 H       1  UNL1        0.0310
@<TRIPOS>BOND
     1    23    20    1
     2    17    15    1
     3     2     1    1
     4    14    11    1
     5    20    21    1
     6    20    22    1
     7    20    19    1
     8     3     1    1
     9    12    11    1
    10     1     4    1
    11     1    26    1
    12    15    19    1
    13    15    18    1
    14    15    16    1
    15    19    24    2
    16    11     9    1
    17    11    13    1
    18     6     5    1
    19    25    24    1
    20    24    26    1
    21     4     9    2
    22     4     5    1
    23     9    10    1
    24    26    27    1
    25    26    28    1
    26     5     7    1
    27     5     8    1
