@<TRIPOS>MOLECULE
/home/jramos/PycharmProjects/GeCos/examples/01-IsoP_trueno_rdkit_mp2/01-IsoP_g16_conformers/01-IsoP_1364_gaussian.xyz
 28 27 0 0 0
SMALL
GASTEIGER

@<TRIPOS>ATOM
      1 C          -0.8185    0.8328    0.0753 C.3     1  UNL1       -0.0286
      2 H          -0.7354    1.9124   -0.0797 H       1  UNL1        0.0313
      3 H          -0.4195    0.6364    1.0716 H       1  UNL1        0.0313
      4 C          -2.2655    0.4220   -0.0321 C.2     1  UNL1       -0.0765
      5 C          -3.0989    1.2282   -0.9907 C.3     1  UNL1       -0.0438
      6 H          -2.6528    1.2345   -1.9878 H       1  UNL1        0.0274
      7 H          -4.1094    0.8304   -1.0752 H       1  UNL1        0.0274
      8 H          -3.1659    2.2690   -0.6665 H       1  UNL1        0.0274
      9 C          -2.7908   -0.6248    0.6314 C.2     1  UNL1       -0.0881
     10 H          -3.8395   -0.8536    0.4629 H       1  UNL1        0.0569
     11 C          -2.0818   -1.5294    1.5932 C.3     1  UNL1       -0.0466
     12 H          -2.5548   -1.5021    2.5767 H       1  UNL1        0.0272
     13 H          -2.1232   -2.5648    1.2498 H       1  UNL1        0.0272
     14 H          -1.0344   -1.2634    1.7166 H       1  UNL1        0.0272
     15 C           3.8813    0.6808   -0.2827 C.3     1  UNL1       -0.0440
     16 H           4.6202   -0.0122   -0.6914 H       1  UNL1        0.0274
     17 H           3.8910    1.5861   -0.8877 H       1  UNL1        0.0274
     18 H           4.2132    0.9388    0.7256 H       1  UNL1        0.0274
     19 C           2.5162    0.0507   -0.2529 C.2     1  UNL1       -0.0796
     20 C           2.4228   -1.2093    0.5624 C.3     1  UNL1       -0.0440
     21 H           3.0960   -1.9729    0.1663 H       1  UNL1        0.0274
     22 H           2.7358   -1.0157    1.5907 H       1  UNL1        0.0274
     23 H           1.4180   -1.6232    0.5903 H       1  UNL1        0.0274
     24 C           1.4854    0.6015   -0.9213 C.2     1  UNL1       -0.0850
     25 H           1.6747    1.5280   -1.4577 H       1  UNL1        0.0572
     26 C           0.0685    0.1107   -0.9571 C.3     1  UNL1       -0.0308
     27 H           0.0124   -0.9630   -0.7737 H       1  UNL1        0.0310
     28 H          -0.3454    0.2719   -1.9561 H       1  UNL1        0.0310
@<TRIPOS>BOND
     1     6     5    1
     2    28    26    1
     3    25    24    1
     4     7     5    1
     5     5     8    1
     6     5     4    1
     7    26    24    1
     8    26    27    1
     9    26     1    1
    10    24    19    2
    11    17    15    1
    12    16    15    1
    13    15    19    1
    14    15    18    1
    15    19    20    1
    16     2     1    1
    17     4     1    1
    18     4     9    2
    19     1     3    1
    20    21    20    1
    21    10     9    1
    22    20    23    1
    23    20    22    1
    24     9    11    1
    25    13    11    1
    26    11    14    1
    27    11    12    1
