@<TRIPOS>MOLECULE
/home/jramos/PycharmProjects/GeCos/examples/01-IsoP_trueno_rdkit_mp2/01-IsoP_g16_conformers/01-IsoP_3936_gaussian.xyz
 28 27 0 0 0
SMALL
GASTEIGER

@<TRIPOS>ATOM
      1 C          -0.7342    0.6371   -0.7063 C.3     1  UNL1       -0.0286
      2 H          -0.5374   -0.3078   -1.2151 H       1  UNL1        0.0313
      3 H          -0.5207    1.4258   -1.4336 H       1  UNL1        0.0313
      4 C          -2.1727    0.7393   -0.2657 C.2     1  UNL1       -0.0765
      5 C          -2.7423    2.1313   -0.2293 C.3     1  UNL1       -0.0438
      6 H          -2.1295    2.7890    0.3912 H       1  UNL1        0.0274
      7 H          -3.7561    2.1389    0.1692 H       1  UNL1        0.0274
      8 H          -2.7639    2.5683   -1.2300 H       1  UNL1        0.0274
      9 C          -2.9056   -0.3196    0.1262 C.2     1  UNL1       -0.0881
     10 H          -3.9255   -0.1341    0.4515 H       1  UNL1        0.0569
     11 C          -2.4680   -1.7523    0.1678 C.3     1  UNL1       -0.0466
     12 H          -2.5487   -2.1503    1.1812 H       1  UNL1        0.0272
     13 H          -1.4378   -1.8803   -0.1567 H       1  UNL1        0.0272
     14 H          -3.1015   -2.3733   -0.4684 H       1  UNL1        0.0272
     15 C           3.9181   -0.1186   -0.5476 C.3     1  UNL1       -0.0440
     16 H           4.1219    0.9079   -0.8486 H       1  UNL1        0.0274
     17 H           4.6464   -0.4027    0.2153 H       1  UNL1        0.0274
     18 H           4.0911   -0.7689   -1.4081 H       1  UNL1        0.0274
     19 C           2.5143   -0.2747   -0.0313 C.2     1  UNL1       -0.0796
     20 C           2.1572   -1.6676    0.4081 C.3     1  UNL1       -0.0440
     21 H           1.1277   -1.7551    0.7462 H       1  UNL1        0.0274
     22 H           2.8120   -1.9934    1.2194 H       1  UNL1        0.0274
     23 H           2.3018   -2.3703   -0.4154 H       1  UNL1        0.0274
     24 C           1.6755    0.7772    0.0207 C.2     1  UNL1       -0.0850
     25 H           2.0452    1.7307   -0.3479 H       1  UNL1        0.0572
     26 C           0.2460    0.7691    0.4751 C.3     1  UNL1       -0.0308
     27 H           0.0318    1.6964    1.0130 H       1  UNL1        0.0310
     28 H           0.0546   -0.0423    1.1784 H       1  UNL1        0.0310
@<TRIPOS>BOND
     1     3     1    1
     2    18    15    1
     3     8     5    1
     4     2     1    1
     5    16    15    1
     6     1     4    1
     7     1    26    1
     8    15    19    1
     9    15    17    1
    10    14    11    1
    11    23    20    1
    12    25    24    1
    13     4     5    1
    14     4     9    2
    15     5     7    1
    16     5     6    1
    17    13    11    1
    18    19    24    2
    19    19    20    1
    20    24    26    1
    21     9    11    1
    22     9    10    1
    23    11    12    1
    24    20    21    1
    25    20    22    1
    26    26    27    1
    27    26    28    1
