@<TRIPOS>MOLECULE
/home/jramos/PycharmProjects/GeCos/examples/01-IsoP_trueno_rdkit_mp2/01-IsoP_g16_conformers/01-IsoP_203_gaussian.xyz
 28 27 0 0 0
SMALL
GASTEIGER

@<TRIPOS>ATOM
      1 C           0.8368    0.2137   -0.7894 C.3     1  UNL1       -0.0286
      2 H           0.7516    0.5498   -1.8268 H       1  UNL1        0.0313
      3 H           0.6079   -0.8531   -0.7950 H       1  UNL1        0.0313
      4 C           2.2359    0.4769   -0.2919 C.2     1  UNL1       -0.0765
      5 C           2.9120    1.6902   -0.8698 C.3     1  UNL1       -0.0438
      6 H           2.3041    2.5854   -0.7210 H       1  UNL1        0.0274
      7 H           3.0549    1.5790   -1.9469 H       1  UNL1        0.0274
      8 H           3.8851    1.8627   -0.4117 H       1  UNL1        0.0274
      9 C           2.8435   -0.2743    0.6454 C.2     1  UNL1       -0.0881
     10 H           3.8436    0.0170    0.9545 H       1  UNL1        0.0569
     11 C           2.2884   -1.4887    1.3259 C.3     1  UNL1       -0.0466
     12 H           2.9213   -2.3602    1.1479 H       1  UNL1        0.0272
     13 H           2.2493   -1.3403    2.4067 H       1  UNL1        0.0272
     14 H           1.2828   -1.7293    0.9884 H       1  UNL1        0.0272
     15 C          -2.3179   -1.1617    0.9626 C.3     1  UNL1       -0.0440
     16 H          -2.4483   -2.1735    0.5726 H       1  UNL1        0.0274
     17 H          -1.3318   -1.1021    1.4163 H       1  UNL1        0.0274
     18 H          -3.0642   -1.0281    1.7489 H       1  UNL1        0.0274
     19 C          -2.5211   -0.1540   -0.1346 C.2     1  UNL1       -0.0796
     20 C          -3.8580   -0.2304   -0.8190 C.3     1  UNL1       -0.0440
     21 H          -3.9507    0.5217   -1.6010 H       1  UNL1        0.0274
     22 H          -4.6698   -0.0821   -0.1034 H       1  UNL1        0.0274
     23 H          -4.0091   -1.2139   -1.2696 H       1  UNL1        0.0274
     24 C          -1.6068    0.7630   -0.5033 C.2     1  UNL1       -0.0850
     25 H          -1.8644    1.4232   -1.3277 H       1  UNL1        0.0572
     26 C          -0.2269    0.9371    0.0585 C.3     1  UNL1       -0.0308
     27 H           0.0154    2.0023    0.0999 H       1  UNL1        0.0310
     28 H          -0.1633    0.5701    1.0837 H       1  UNL1        0.0310
@<TRIPOS>BOND
     1     7     5    1
     2     2     1    1
     3    21    20    1
     4    25    24    1
     5    23    20    1
     6     5     6    1
     7     5     8    1
     8     5     4    1
     9    20    19    1
    10    20    22    1
    11     3     1    1
    12     1     4    1
    13     1    26    1
    14    24    19    2
    15    24    26    1
    16     4     9    2
    17    19    15    1
    18    26    27    1
    19    26    28    1
    20    16    15    1
    21     9    10    1
    22     9    11    1
    23    15    17    1
    24    15    18    1
    25    14    11    1
    26    12    11    1
    27    11    13    1
