@<TRIPOS>MOLECULE
/home/jramos/PycharmProjects/GeCos/examples/01-IsoP_trueno_rdkit_mp2/01-IsoP_g16_conformers/01-IsoP_3916_gaussian.xyz
 28 27 0 0 0
SMALL
GASTEIGER

@<TRIPOS>ATOM
      1 C           1.0083    0.5842    0.4006 C.3     1  UNL1       -0.0286
      2 H           1.1936    1.4812    0.9986 H       1  UNL1        0.0313
      3 H           0.6512   -0.1771    1.0959 H       1  UNL1        0.0313
      4 C           2.2882    0.1602   -0.2747 C.2     1  UNL1       -0.0765
      5 C           3.2234    1.2769   -0.6513 C.3     1  UNL1       -0.0438
      6 H           4.0880    0.9070   -1.2010 H       1  UNL1        0.0274
      7 H           2.7175    2.0179   -1.2743 H       1  UNL1        0.0274
      8 H           3.5807    1.8007    0.2380 H       1  UNL1        0.0274
      9 C           2.5770   -1.1183   -0.5813 C.2     1  UNL1       -0.0881
     10 H           3.5152   -1.3145   -1.0929 H       1  UNL1        0.0569
     11 C           1.7366   -2.3255   -0.2942 C.3     1  UNL1       -0.0466
     12 H           0.8057   -2.0722    0.2080 H       1  UNL1        0.0272
     13 H           2.2759   -3.0368    0.3343 H       1  UNL1        0.0272
     14 H           1.4836   -2.8474   -1.2190 H       1  UNL1        0.0272
     15 C          -3.5859    1.3654    1.1237 C.3     1  UNL1       -0.0440
     16 H          -3.4098    2.4309    1.2636 H       1  UNL1        0.0274
     17 H          -4.5076    1.2431    0.5503 H       1  UNL1        0.0274
     18 H          -3.7607    0.9153    2.1035 H       1  UNL1        0.0274
     19 C          -2.4305    0.7013    0.4269 C.2     1  UNL1       -0.0796
     20 C          -2.6007   -0.7744    0.1942 C.3     1  UNL1       -0.0440
     21 H          -3.4762   -0.9655   -0.4304 H       1  UNL1        0.0274
     22 H          -2.7722   -1.2873    1.1431 H       1  UNL1        0.0274
     23 H          -1.7370   -1.2313   -0.2823 H       1  UNL1        0.0274
     24 C          -1.3482    1.4097    0.0535 C.2     1  UNL1       -0.0850
     25 H          -1.3343    2.4687    0.2987 H       1  UNL1        0.0572
     26 C          -0.1122    0.8834   -0.6137 C.3     1  UNL1       -0.0308
     27 H          -0.3197   -0.0248   -1.1809 H       1  UNL1        0.0310
     28 H           0.2500    1.6191   -1.3369 H       1  UNL1        0.0310
@<TRIPOS>BOND
     1    28    26    1
     2     7     5    1
     3    14    11    1
     4     6     5    1
     5    27    26    1
     6    10     9    1
     7     5     4    1
     8     5     8    1
     9    26    24    1
    10    26     1    1
    11     9    11    1
    12     9     4    2
    13    21    20    1
    14    11    12    1
    15    11    13    1
    16    23    20    1
    17     4     1    1
    18    24    25    1
    19    24    19    2
    20    20    19    1
    21    20    22    1
    22     1     2    1
    23     1     3    1
    24    19    15    1
    25    17    15    1
    26    15    16    1
    27    15    18    1
