@<TRIPOS>MOLECULE
/home/jramos/PycharmProjects/GeCos/examples/01-IsoP_trueno_rdkit_mp2/01-IsoP_g16_conformers/01-IsoP_2780_gaussian.xyz
 28 27 0 0 0
SMALL
GASTEIGER

@<TRIPOS>ATOM
      1 C           0.6088   -0.9877    0.2801 C.3     1  UNL1       -0.0286
      2 H           0.3822   -0.5577    1.2570 H       1  UNL1        0.0313
      3 H           0.2632   -2.0250    0.3154 H       1  UNL1        0.0313
      4 C           2.0894   -0.9634   -0.0052 C.2     1  UNL1       -0.0765
      5 C           2.6003   -2.0790   -0.8758 C.3     1  UNL1       -0.0438
      6 H           3.6586   -1.9570   -1.1030 H       1  UNL1        0.0274
      7 H           2.4636   -3.0463   -0.3875 H       1  UNL1        0.0274
      8 H           2.0536   -2.1201   -1.8205 H       1  UNL1        0.0274
      9 C           2.9131    0.0078    0.4310 C.2     1  UNL1       -0.0881
     10 H           3.9599   -0.0537    0.1466 H       1  UNL1        0.0569
     11 C           2.5454    1.1877    1.2786 C.3     1  UNL1       -0.0466
     12 H           3.1089    1.1882    2.2136 H       1  UNL1        0.0272
     13 H           1.4861    1.2067    1.5248 H       1  UNL1        0.0272
     14 H           2.7835    2.1206    0.7641 H       1  UNL1        0.0272
     15 C          -3.9402    0.2557    0.2627 C.3     1  UNL1       -0.0440
     16 H          -4.5423    1.0417   -0.1988 H       1  UNL1        0.0274
     17 H          -4.2264   -0.6974   -0.1792 H       1  UNL1        0.0274
     18 H          -4.2047    0.2355    1.3223 H       1  UNL1        0.0274
     19 C          -2.4728    0.5303    0.0816 C.2     1  UNL1       -0.0796
     20 C          -2.0002    1.8334    0.6642 C.3     1  UNL1       -0.0440
     21 H          -0.9309    1.9886    0.5451 H       1  UNL1        0.0274
     22 H          -2.2294    1.8732    1.7313 H       1  UNL1        0.0274
     23 H          -2.5211    2.6729    0.1982 H       1  UNL1        0.0274
     24 C          -1.6792   -0.3467   -0.5618 C.2     1  UNL1       -0.0850
     25 H          -2.1361   -1.2663   -0.9188 H       1  UNL1        0.0572
     26 C          -0.2012   -0.2280   -0.7878 C.3     1  UNL1       -0.0308
     27 H           0.0475   -0.6283   -1.7743 H       1  UNL1        0.0310
     28 H           0.1203    0.8143   -0.7921 H       1  UNL1        0.0310
@<TRIPOS>BOND
     1     8     5    1
     2    27    26    1
     3     6     5    1
     4    25    24    1
     5     5     7    1
     6     5     4    1
     7    28    26    1
     8    26    24    1
     9    26     1    1
    10    24    19    2
    11    16    15    1
    12    17    15    1
    13     4     1    1
    14     4     9    2
    15    19    15    1
    16    19    20    1
    17    10     9    1
    18    23    20    1
    19    15    18    1
    20     1     3    1
    21     1     2    1
    22     9    11    1
    23    21    20    1
    24    20    22    1
    25    14    11    1
    26    11    13    1
    27    11    12    1
