@<TRIPOS>MOLECULE
/home/jramos/PycharmProjects/GeCos/examples/01-IsoP_trueno_rdkit_mp2/01-IsoP_g16_conformers/01-IsoP_2655_gaussian.xyz
 28 27 0 0 0
SMALL
GASTEIGER

@<TRIPOS>ATOM
      1 C          -0.7625   -0.7403    0.4895 C.3     1  UNL1       -0.0286
      2 H          -0.5820   -1.6228    1.1100 H       1  UNL1        0.0313
      3 H          -0.5793   -1.0495   -0.5407 H       1  UNL1        0.0313
      4 C          -2.1839   -0.2750    0.6832 C.2     1  UNL1       -0.0765
      5 C          -2.7606   -0.5058    2.0534 C.3     1  UNL1       -0.0438
      6 H          -2.8231   -1.5737    2.2736 H       1  UNL1        0.0274
      7 H          -2.1288   -0.0592    2.8244 H       1  UNL1        0.0274
      8 H          -3.7584   -0.0785    2.1450 H       1  UNL1        0.0274
      9 C          -2.8944    0.3557   -0.2703 C.2     1  UNL1       -0.0881
     10 H          -3.9024    0.6747   -0.0198 H       1  UNL1        0.0569
     11 C          -2.4464    0.6763   -1.6640 C.3     1  UNL1       -0.0466
     12 H          -2.4858    1.7524   -1.8433 H       1  UNL1        0.0272
     13 H          -1.4285    0.3457   -1.8582 H       1  UNL1        0.0272
     14 H          -3.0997    0.2074   -2.4023 H       1  UNL1        0.0272
     15 C           3.8971   -0.6085   -0.2245 C.3     1  UNL1       -0.0440
     16 H           4.0413   -1.3216   -1.0393 H       1  UNL1        0.0274
     17 H           4.0827   -1.1232    0.7170 H       1  UNL1        0.0274
     18 H           4.6559    0.1680   -0.3456 H       1  UNL1        0.0274
     19 C           2.5151   -0.0171   -0.2679 C.2     1  UNL1       -0.0796
     20 C           2.1839    0.7147   -1.5390 C.3     1  UNL1       -0.0440
     21 H           2.3015    0.0497   -2.3973 H       1  UNL1        0.0274
     22 H           1.1687    1.1032   -1.5528 H       1  UNL1        0.0274
     23 H           2.8713    1.5500   -1.6906 H       1  UNL1        0.0274
     24 C           1.6722   -0.1517    0.7733 C.2     1  UNL1       -0.0850
     25 H           2.0214   -0.7239    1.6291 H       1  UNL1        0.0572
     26 C           0.2612    0.3494    0.8618 C.3     1  UNL1       -0.0308
     27 H           0.1019    1.2123    0.2141 H       1  UNL1        0.0310
     28 H           0.0617    0.6914    1.8809 H       1  UNL1        0.0310
@<TRIPOS>BOND
     1    14    11    1
     2    21    20    1
     3    13    11    1
     4    12    11    1
     5    23    20    1
     6    11     9    1
     7    22    20    1
     8    20    19    1
     9    16    15    1
    10     3     1    1
    11    18    15    1
    12     9    10    1
    13     9     4    2
    14    19    15    1
    15    19    24    2
    16    15    17    1
    17    27    26    1
    18     1     4    1
    19     1    26    1
    20     1     2    1
    21     4     5    1
    22    24    26    1
    23    24    25    1
    24    26    28    1
    25     5     8    1
    26     5     6    1
    27     5     7    1
