@<TRIPOS>MOLECULE
/home/jramos/PycharmProjects/GeCos/examples/01-IsoP_trueno_rdkit_mp2/01-IsoP_g16_conformers/01-IsoP_2976_gaussian.xyz
 28 27 0 0 0
SMALL
GASTEIGER

@<TRIPOS>ATOM
      1 C           0.7537    0.6286   -0.2480 C.3     1  UNL1       -0.0286
      2 H           0.2642    1.0682    0.6254 H       1  UNL1        0.0313
      3 H           0.7990    1.4166   -1.0017 H       1  UNL1        0.0313
      4 C           2.1328    0.1543    0.1353 C.2     1  UNL1       -0.0765
      5 C           2.2676   -0.3616    1.5425 C.3     1  UNL1       -0.0438
      6 H           2.0721    0.4319    2.2671 H       1  UNL1        0.0274
      7 H           3.2647   -0.7581    1.7300 H       1  UNL1        0.0274
      8 H           1.5448   -1.1565    1.7399 H       1  UNL1        0.0274
      9 C           3.1783    0.1327   -0.7121 C.2     1  UNL1       -0.0881
     10 H           4.1217   -0.2549   -0.3373 H       1  UNL1        0.0569
     11 C           3.1930    0.5876   -2.1398 C.3     1  UNL1       -0.0466
     12 H           3.4787   -0.2318   -2.8019 H       1  UNL1        0.0272
     13 H           3.9237    1.3850   -2.2879 H       1  UNL1        0.0272
     14 H           2.2234    0.9547   -2.4681 H       1  UNL1        0.0272
     15 C          -3.9307    0.4175   -0.8541 C.3     1  UNL1       -0.0440
     16 H          -4.3090    1.1796   -0.1691 H       1  UNL1        0.0274
     17 H          -4.6886   -0.3676   -0.9038 H       1  UNL1        0.0274
     18 H          -3.8359    0.8634   -1.8430 H       1  UNL1        0.0274
     19 C          -2.6189   -0.1356   -0.3693 C.2     1  UNL1       -0.0796
     20 C          -2.6711   -0.7745    0.9908 C.3     1  UNL1       -0.0440
     21 H          -3.0455   -0.0603    1.7272 H       1  UNL1        0.0274
     22 H          -1.7015   -1.1287    1.3315 H       1  UNL1        0.0274
     23 H          -3.3630   -1.6197    0.9906 H       1  UNL1        0.0274
     24 C          -1.5098   -0.0483   -1.1276 C.2     1  UNL1       -0.0850
     25 H          -1.5987    0.4576   -2.0859 H       1  UNL1        0.0572
     26 C          -0.1304   -0.5187   -0.7738 C.3     1  UNL1       -0.0308
     27 H          -0.1641   -1.3169   -0.0311 H       1  UNL1        0.0310
     28 H           0.3496   -0.9443   -1.6588 H       1  UNL1        0.0310
@<TRIPOS>BOND
     1    12    11    1
     2    14    11    1
     3    13    11    1
     4    11     9    1
     5    25    24    1
     6    18    15    1
     7    28    26    1
     8    24    26    1
     9    24    19    2
    10     3     1    1
    11    17    15    1
    12    15    19    1
    13    15    16    1
    14    26     1    1
    15    26    27    1
    16     9    10    1
    17     9     4    2
    18    19    20    1
    19     1     4    1
    20     1     2    1
    21     4     5    1
    22    23    20    1
    23    20    22    1
    24    20    21    1
    25     5     7    1
    26     5     8    1
    27     5     6    1
