@<TRIPOS>MOLECULE
/home/jramos/PycharmProjects/GeCos/examples/01-IsoP_trueno_rdkit_mp2/01-IsoP_g16_conformers/01-IsoP_2636_gaussian.xyz
 28 27 0 0 0
SMALL
GASTEIGER

@<TRIPOS>ATOM
      1 C          -0.7219   -0.1874    0.9016 C.3     1  UNL1       -0.0286
      2 H          -0.5178   -0.1758    1.9762 H       1  UNL1        0.0313
      3 H          -0.8007    0.8568    0.5952 H       1  UNL1        0.0313
      4 C          -2.0042   -0.9380    0.6442 C.2     1  UNL1       -0.0765
      5 C          -2.2977   -2.0656    1.5959 C.3     1  UNL1       -0.0438
      6 H          -3.1956   -2.6103    1.3067 H       1  UNL1        0.0274
      7 H          -2.4368   -1.6899    2.6119 H       1  UNL1        0.0274
      8 H          -1.4677   -2.7748    1.6306 H       1  UNL1        0.0274
      9 C          -2.8230   -0.6744   -0.3912 C.2     1  UNL1       -0.0881
     10 H          -3.7095   -1.2927   -0.5029 H       1  UNL1        0.0569
     11 C          -2.6488    0.3930   -1.4286 C.3     1  UNL1       -0.0466
     12 H          -2.5989   -0.0451   -2.4272 H       1  UNL1        0.0272
     13 H          -3.4953    1.0823   -1.4263 H       1  UNL1        0.0272
     14 H          -1.7420    0.9740   -1.2766 H       1  UNL1        0.0272
     15 C           1.8730    1.3971   -1.4795 C.3     1  UNL1       -0.0440
     16 H           2.6053    1.2418   -2.2749 H       1  UNL1        0.0274
     17 H           1.7255    2.4757   -1.3928 H       1  UNL1        0.0274
     18 H           0.9311    0.9543   -1.7934 H       1  UNL1        0.0274
     19 C           2.3799    0.8378   -0.1790 C.2     1  UNL1       -0.0796
     20 C           3.6599    1.4540    0.3142 C.3     1  UNL1       -0.0440
     21 H           4.4611    1.3227   -0.4167 H       1  UNL1        0.0274
     22 H           3.5418    2.5295    0.4644 H       1  UNL1        0.0274
     23 H           3.9807    1.0106    1.2556 H       1  UNL1        0.0274
     24 C           1.7691   -0.1391    0.5176 C.2     1  UNL1       -0.0850
     25 H           2.2235   -0.4426    1.4574 H       1  UNL1        0.0572
     26 C           0.4785   -0.8211    0.1726 C.3     1  UNL1       -0.0308
     27 H           0.2870   -0.7951   -0.9008 H       1  UNL1        0.0310
     28 H           0.5431   -1.8777    0.4458 H       1  UNL1        0.0310
@<TRIPOS>BOND
     1    12    11    1
     2    16    15    1
     3    18    15    1
     4    15    17    1
     5    15    19    1
     6    11    13    1
     7    11    14    1
     8    11     9    1
     9    27    26    1
    10    10     9    1
    11    21    20    1
    12     9     4    2
    13    19    20    1
    14    19    24    2
    15    26    28    1
    16    26    24    1
    17    26     1    1
    18    20    22    1
    19    20    23    1
    20    24    25    1
    21     3     1    1
    22     4     1    1
    23     4     5    1
    24     1     2    1
    25     6     5    1
    26     5     8    1
    27     5     7    1
