@<TRIPOS>MOLECULE
/home/jramos/PycharmProjects/GeCos/examples/01-IsoP_trueno_rdkit_mp2/01-IsoP_g16_conformers/01-IsoP_2579_gaussian.xyz
 28 27 0 0 0
SMALL
GASTEIGER

@<TRIPOS>ATOM
      1 C           0.5212    0.7227   -0.5881 C.3     1  UNL1       -0.0286
      2 H           0.4928   -0.2805   -1.0162 H       1  UNL1        0.0313
      3 H           0.0814    1.3872   -1.3375 H       1  UNL1        0.0313
      4 C           1.9347    1.1612   -0.2988 C.2     1  UNL1       -0.0765
      5 C           2.1891    2.6403   -0.4041 C.3     1  UNL1       -0.0438
      6 H           1.5019    3.2020    0.2325 H       1  UNL1        0.0274
      7 H           3.2066    2.8936   -0.1089 H       1  UNL1        0.0274
      8 H           2.0316    2.9895   -1.4269 H       1  UNL1        0.0274
      9 C           2.9103    0.3159    0.0827 C.2     1  UNL1       -0.0881
     10 H           3.8890    0.7379    0.2936 H       1  UNL1        0.0569
     11 C           2.7997   -1.1687    0.2549 C.3     1  UNL1       -0.0466
     12 H           3.4977   -1.6916   -0.4017 H       1  UNL1        0.0272
     13 H           1.7985   -1.5368    0.0422 H       1  UNL1        0.0272
     14 H           3.0492   -1.4574    1.2777 H       1  UNL1        0.0272
     15 C          -3.8257   -0.9814    0.0756 C.3     1  UNL1       -0.0440
     16 H          -4.4087   -1.3500    0.9228 H       1  UNL1        0.0274
     17 H          -4.2721   -0.0488   -0.2659 H       1  UNL1        0.0274
     18 H          -3.9243   -1.7210   -0.7221 H       1  UNL1        0.0274
     19 C          -2.3835   -0.7957    0.4593 C.2     1  UNL1       -0.0796
     20 C          -1.6967   -2.0418    0.9456 C.3     1  UNL1       -0.0440
     21 H          -0.6484   -1.8826    1.1850 H       1  UNL1        0.0274
     22 H          -1.7533   -2.8234    0.1849 H       1  UNL1        0.0274
     23 H          -2.1951   -2.4315    1.8360 H       1  UNL1        0.0274
     24 C          -1.7921    0.4100    0.3637 C.2     1  UNL1       -0.0850
     25 H          -2.3897    1.2312   -0.0243 H       1  UNL1        0.0572
     26 C          -0.3623    0.7403    0.6741 C.3     1  UNL1       -0.0308
     27 H           0.0590    0.0472    1.4034 H       1  UNL1        0.0310
     28 H          -0.3107    1.7324    1.1305 H       1  UNL1        0.0310
@<TRIPOS>BOND
     1     8     5    1
     2     3     1    1
     3     2     1    1
     4    18    15    1
     5     1     4    1
     6     1    26    1
     7     5     4    1
     8     5     7    1
     9     5     6    1
    10    12    11    1
    11     4     9    2
    12    17    15    1
    13    25    24    1
    14    13    11    1
    15    15    19    1
    16    15    16    1
    17     9    11    1
    18     9    10    1
    19    22    20    1
    20    11    14    1
    21    24    19    2
    22    24    26    1
    23    19    20    1
    24    26    28    1
    25    26    27    1
    26    20    21    1
    27    20    23    1
