@<TRIPOS>MOLECULE
/home/jramos/PycharmProjects/GeCos/examples/01-IsoP_trueno_rdkit_mp2/01-IsoP_g16_conformers/01-IsoP_1705_gaussian.xyz
 28 27 0 0 0
SMALL
GASTEIGER

@<TRIPOS>ATOM
      1 C           0.7933   -0.3102    0.5301 C.3     1  UNL1       -0.0286
      2 H           0.9019    0.1828    1.4977 H       1  UNL1        0.0313
      3 H           0.3224   -1.2767    0.7300 H       1  UNL1        0.0313
      4 C           2.1320   -0.5307   -0.1280 C.2     1  UNL1       -0.0765
      5 C           2.2124   -1.7268   -1.0375 C.3     1  UNL1       -0.0438
      6 H           2.0608   -2.6517   -0.4767 H       1  UNL1        0.0274
      7 H           1.4352   -1.6897   -1.8042 H       1  UNL1        0.0274
      8 H           3.1779   -1.7849   -1.5385 H       1  UNL1        0.0274
      9 C           3.1853    0.2932    0.0256 C.2     1  UNL1       -0.0881
     10 H           4.0952    0.0530   -0.5175 H       1  UNL1        0.0569
     11 C           3.2501    1.5276    0.8727 C.3     1  UNL1       -0.0466
     12 H           2.3120    1.7291    1.3845 H       1  UNL1        0.0272
     13 H           3.4892    2.4007    0.2628 H       1  UNL1        0.0272
     14 H           4.0348    1.4426    1.6269 H       1  UNL1        0.0272
     15 C          -3.8859    0.3014    0.8242 C.3     1  UNL1       -0.0440
     16 H          -3.7478    1.1190    1.5301 H       1  UNL1        0.0274
     17 H          -4.6941    0.5719    0.1409 H       1  UNL1        0.0274
     18 H          -4.2216   -0.5776    1.3790 H       1  UNL1        0.0274
     19 C          -2.6211    0.0062    0.0661 C.2     1  UNL1       -0.0796
     20 C          -2.7348   -1.1103   -0.9345 C.3     1  UNL1       -0.0440
     21 H          -3.4818   -0.8694   -1.6941 H       1  UNL1        0.0274
     22 H          -1.7960   -1.3275   -1.4376 H       1  UNL1        0.0274
     23 H          -3.0704   -2.0247   -0.4406 H       1  UNL1        0.0274
     24 C          -1.4983    0.7136    0.2935 C.2     1  UNL1       -0.0850
     25 H          -1.5397    1.4833    1.0602 H       1  UNL1        0.0572
     26 C          -0.1586    0.5202   -0.3524 C.3     1  UNL1       -0.0308
     27 H           0.3039    1.4937   -0.5350 H       1  UNL1        0.0310
     28 H          -0.2561    0.0408   -1.3273 H       1  UNL1        0.0310
@<TRIPOS>BOND
     1     7     5    1
     2    21    20    1
     3     8     5    1
     4    22    20    1
     5    28    26    1
     6     5     6    1
     7     5     4    1
     8    20    23    1
     9    20    19    1
    10    27    26    1
    11    10     9    1
    12    26    24    1
    13    26     1    1
    14     4     9    2
    15     4     1    1
    16     9    11    1
    17    19    24    2
    18    19    15    1
    19    17    15    1
    20    13    11    1
    21    24    25    1
    22     1     3    1
    23     1     2    1
    24    15    18    1
    25    15    16    1
    26    11    12    1
    27    11    14    1
