@<TRIPOS>MOLECULE
/home/jramos/PycharmProjects/GeCos/examples/01-IsoP_trueno_rdkit_mp2/01-IsoP_g16_conformers/01-IsoP_1352_gaussian.xyz
 28 27 0 0 0
SMALL
GASTEIGER

@<TRIPOS>ATOM
      1 C          -0.2710   -1.1088   -0.0374 C.3     1  UNL11      -0.0286
      2 H           0.1131   -1.0650    0.9829 H       1  UNL11       0.0313
      3 H           0.3185   -1.8724   -0.5531 H       1  UNL11       0.0313
      4 C          -1.7275   -1.4991   -0.0640 C.2     1  UNL11      -0.0765
      5 C          -2.1717   -2.2638   -1.2811 C.3     1  UNL11      -0.0438
      6 H          -1.6615   -3.2277   -1.3415 H       1  UNL11       0.0274
      7 H          -1.9296   -1.7185   -2.1960 H       1  UNL11       0.0274
      8 H          -3.2456   -2.4452   -1.2701 H       1  UNL11       0.0274
      9 C          -2.6057   -1.1534    0.8958 C.2     1  UNL11      -0.0881
     10 H          -3.6397   -1.4618    0.7677 H       1  UNL11       0.0569
     11 C          -2.3166   -0.3762    2.1441 C.3     1  UNL11      -0.0466
     12 H          -1.2716   -0.0836    2.2170 H       1  UNL11       0.0272
     13 H          -2.9193    0.5333    2.1797 H       1  UNL11       0.0272
     14 H          -2.5668   -0.9576    3.0335 H       1  UNL11       0.0272
     15 C           3.6145    1.5629   -0.0974 C.3     1  UNL11      -0.0440
     16 H           3.9901    1.0435   -0.9778 H       1  UNL11       0.0274
     17 H           4.1706    1.2078    0.7732 H       1  UNL11       0.0274
     18 H           3.8402    2.6262   -0.2050 H       1  UNL11       0.0274
     19 C           2.1377    1.3453    0.0844 C.2     1  UNL11      -0.0796
     20 C           1.5430    2.0353    1.2807 C.3     1  UNL11      -0.0440
     21 H           0.4818    1.8336    1.4028 H       1  UNL11       0.0274
     22 H           1.6788    3.1165    1.2065 H       1  UNL11       0.0274
     23 H           2.0535    1.7150    2.1916 H       1  UNL11       0.0274
     24 C           1.4383    0.5879   -0.7816 C.2     1  UNL11      -0.0850
     25 H           1.9876    0.1228   -1.5964 H       1  UNL11       0.0572
     26 C          -0.0223    0.2539   -0.7119 C.3     1  UNL11      -0.0308
     27 H          -0.5817    1.0176   -0.1703 H       1  UNL11       0.0310
     28 H          -0.4370    0.2310   -1.7232 H       1  UNL11       0.0310
@<TRIPOS>BOND
     1    22    20    1
     2    18    15    1
     3    20    21    1
     4    20    23    1
     5    20    19    1
     6    15    19    1
     7    15    17    1
     8    15    16    1
     9    19    24    2
    10    27    26    1
    11    13    11    1
    12    24    26    1
    13    24    25    1
    14    12    11    1
    15    26    28    1
    16    26     1    1
    17    11    14    1
    18    11     9    1
    19     9    10    1
    20     9     4    2
    21     2     1    1
    22     1     4    1
    23     1     3    1
    24     4     5    1
    25     7     5    1
    26     5     8    1
    27     5     6    1
