@<TRIPOS>MOLECULE
/home/jramos/PycharmProjects/GeCos/examples/01-IsoP_trueno_rdkit_mp2/01-IsoP_g16_conformers/01-IsoP_3875_gaussian.xyz
 28 27 0 0 0
SMALL
GASTEIGER

@<TRIPOS>ATOM
      1 C           0.9345   -0.3128    0.0423 C.3     1  UNL1       -0.0286
      2 H           1.2664   -0.7448    0.9880 H       1  UNL1        0.0313
      3 H           0.6507   -1.1542   -0.5958 H       1  UNL1        0.0313
      4 C           2.0385    0.4708   -0.6218 C.2     1  UNL1       -0.0765
      5 C           1.9798    0.5176   -2.1248 C.3     1  UNL1       -0.0438
      6 H           2.1001   -0.4815   -2.5492 H       1  UNL1        0.0274
      7 H           1.0134    0.8938   -2.4681 H       1  UNL1        0.0274
      8 H           2.7573    1.1600   -2.5362 H       1  UNL1        0.0274
      9 C           2.9945    1.1351    0.0538 C.2     1  UNL1       -0.0881
     10 H           3.7268    1.6902   -0.5261 H       1  UNL1        0.0569
     11 C           3.1690    1.2015    1.5406 C.3     1  UNL1       -0.0466
     12 H           4.1440    0.8101    1.8370 H       1  UNL1        0.0272
     13 H           3.1230    2.2354    1.8876 H       1  UNL1        0.0272
     14 H           2.4050    0.6401    2.0733 H       1  UNL1        0.0272
     15 C          -3.4926   -1.6002    1.0905 C.3     1  UNL1       -0.0440
     16 H          -3.5539   -2.6242    0.7151 H       1  UNL1        0.0274
     17 H          -3.2443   -1.6389    2.1501 H       1  UNL1        0.0274
     18 H          -4.4895   -1.1655    0.9881 H       1  UNL1        0.0274
     19 C          -2.4798   -0.8043    0.3143 C.2     1  UNL1       -0.0796
     20 C          -2.7583   -0.7009   -1.1596 C.3     1  UNL1       -0.0440
     21 H          -1.9895   -0.1548   -1.7002 H       1  UNL1        0.0274
     22 H          -2.8336   -1.6980   -1.5986 H       1  UNL1        0.0274
     23 H          -3.7161   -0.2059   -1.3347 H       1  UNL1        0.0274
     24 C          -1.4236   -0.2416    0.9310 C.2     1  UNL1       -0.0850
     25 H          -1.3230   -0.4080    2.0007 H       1  UNL1        0.0572
     26 C          -0.3180    0.5482    0.2960 C.3     1  UNL1       -0.0308
     27 H          -0.6430    0.9968   -0.6437 H       1  UNL1        0.0310
     28 H          -0.0378    1.3777    0.9504 H       1  UNL1        0.0310
@<TRIPOS>BOND
     1     6     5    1
     2     8     5    1
     3     7     5    1
     4     5     4    1
     5    21    20    1
     6    22    20    1
     7    23    20    1
     8    20    19    1
     9    27    26    1
    10     4     1    1
    11     4     9    2
    12     3     1    1
    13    10     9    1
    14     1    26    1
    15     1     2    1
    16     9    11    1
    17    26    24    1
    18    26    28    1
    19    19    24    2
    20    19    15    1
    21    16    15    1
    22    24    25    1
    23    18    15    1
    24    15    17    1
    25    11    12    1
    26    11    13    1
    27    11    14    1
