@<TRIPOS>MOLECULE
/home/jramos/PycharmProjects/GeCos/examples/01-IsoP_trueno_rdkit_mp2/01-IsoP_g16_conformers/01-IsoP_1339_gaussian.xyz
 28 27 0 0 0
SMALL
GASTEIGER

@<TRIPOS>ATOM
      1 C           0.5967    0.7527   -0.7911 C.3     1  UNL1       -0.0286
      2 H           0.2054   -0.0478   -1.4209 H       1  UNL1        0.0313
      3 H           0.2717    1.6902   -1.2515 H       1  UNL1        0.0313
      4 C           2.1031    0.7220   -0.7290 C.2     1  UNL1       -0.0765
      5 C           2.7719    2.0571   -0.5455 C.3     1  UNL1       -0.0438
      6 H           2.5778    2.7092   -1.3998 H       1  UNL1        0.0274
      7 H           2.3868    2.5695    0.3389 H       1  UNL1        0.0274
      8 H           3.8502    1.9526   -0.4327 H       1  UNL1        0.0274
      9 C           2.8245   -0.4134   -0.7774 C.2     1  UNL1       -0.0881
     10 H           3.9047   -0.3281   -0.6971 H       1  UNL1        0.0569
     11 C           2.2994   -1.8087   -0.9305 C.3     1  UNL1       -0.0466
     12 H           2.5984   -2.4279   -0.0826 H       1  UNL1        0.0272
     13 H           1.2141   -1.8380   -0.9951 H       1  UNL1        0.0272
     14 H           2.7034   -2.2822   -1.8273 H       1  UNL1        0.0272
     15 C          -2.0984   -1.6834    0.5185 C.3     1  UNL1       -0.0440
     16 H          -2.5541   -2.1710    1.3833 H       1  UNL1        0.0274
     17 H          -2.4987   -2.1776   -0.3694 H       1  UNL1        0.0274
     18 H          -1.0274   -1.8670    0.5500 H       1  UNL1        0.0274
     19 C          -2.4427   -0.2199    0.4957 C.2     1  UNL1       -0.0796
     20 C          -3.9140    0.0788    0.4086 C.3     1  UNL1       -0.0440
     21 H          -4.3467   -0.3555   -0.4955 H       1  UNL1        0.0274
     22 H          -4.1047    1.1508    0.3978 H       1  UNL1        0.0274
     23 H          -4.4494   -0.3557    1.2558 H       1  UNL1        0.0274
     24 C          -1.5371    0.7748    0.5511 C.2     1  UNL1       -0.0850
     25 H          -1.9105    1.7947    0.5041 H       1  UNL1        0.0572
     26 C          -0.0447    0.6337    0.6048 C.3     1  UNL1       -0.0308
     27 H           0.2513   -0.3199    1.0436 H       1  UNL1        0.0310
     28 H           0.3692    1.4101    1.2537 H       1  UNL1        0.0310
@<TRIPOS>BOND
     1    14    11    1
     2     2     1    1
     3     6     5    1
     4     3     1    1
     5    13    11    1
     6    11     9    1
     7    11    12    1
     8     1     4    1
     9     1    26    1
    10     9     4    2
    11     9    10    1
    12     4     5    1
    13     5     8    1
    14     5     7    1
    15    21    20    1
    16    17    15    1
    17    22    20    1
    18    20    19    1
    19    20    23    1
    20    19    15    1
    21    19    24    2
    22    25    24    1
    23    15    18    1
    24    15    16    1
    25    24    26    1
    26    26    27    1
    27    26    28    1
