@<TRIPOS>MOLECULE
/home/jramos/PycharmProjects/GeCos/examples/01-IsoP_trueno_rdkit_mp2/01-IsoP_g16_conformers/01-IsoP_2179_gaussian.xyz
 28 27 0 0 0
SMALL
GASTEIGER

@<TRIPOS>ATOM
      1 C          -0.9457    0.0383   -0.0439 C.3     1  UNL11      -0.0286
      2 H          -1.4469    0.8554    0.4779 H       1  UNL11       0.0313
      3 H          -0.7311    0.4044   -1.0517 H       1  UNL11       0.0313
      4 C          -1.8276   -1.1818   -0.1305 C.2     1  UNL11      -0.0765
      5 C          -1.5936   -2.0609   -1.3293 C.3     1  UNL11      -0.0438
      6 H          -2.2065   -2.9606   -1.2919 H       1  UNL11       0.0274
      7 H          -0.5470   -2.3669   -1.3930 H       1  UNL11       0.0274
      8 H          -1.8247   -1.5265   -2.2533 H       1  UNL11       0.0274
      9 C          -2.7340   -1.5171    0.8063 C.2     1  UNL11      -0.0881
     10 H          -3.2977   -2.4337    0.6557 H       1  UNL11       0.0569
     11 C          -3.0615   -0.7604    2.0577 C.3     1  UNL11      -0.0466
     12 H          -2.4625    0.1407    2.1661 H       1  UNL11       0.0272
     13 H          -4.1138   -0.4705    2.0744 H       1  UNL11       0.0272
     14 H          -2.8891   -1.3811    2.9388 H       1  UNL11       0.0272
     15 C           3.0704    2.5313    0.0594 C.3     1  UNL11      -0.0440
     16 H           4.1294    2.3212    0.2259 H       1  UNL11       0.0274
     17 H           3.0079    3.1489   -0.8394 H       1  UNL11       0.0274
     18 H           2.7018    3.1150    0.9015 H       1  UNL11       0.0274
     19 C           2.2925    1.2556   -0.1116 C.2     1  UNL11      -0.0796
     20 C           2.7479    0.3908   -1.2543 C.3     1  UNL11      -0.0440
     21 H           3.7864    0.0836   -1.1120 H       1  UNL11       0.0274
     22 H           2.7106    0.9537   -2.1894 H       1  UNL11       0.0274
     23 H           2.1426   -0.5034   -1.3780 H       1  UNL11       0.0274
     24 C           1.2782    0.9485    0.7185 C.2     1  UNL11      -0.0850
     25 H           1.0325    1.6690    1.4949 H       1  UNL11       0.0572
     26 C           0.3923   -0.2604    0.6593 C.3     1  UNL11      -0.0308
     27 H           0.1776   -0.6071    1.6735 H       1  UNL11       0.0310
     28 H           0.8889   -1.0888    0.1521 H       1  UNL11       0.0310
@<TRIPOS>BOND
     1     6     5    1
     2    10     9    1
     3     8     5    1
     4    13    11    1
     5     5     4    1
     6     5     7    1
     7     9    11    1
     8     9     4    2
     9    11    14    1
    10    11    12    1
    11     4     1    1
    12     1     3    1
    13     1     2    1
    14     1    26    1
    15    28    26    1
    16    26    27    1
    17    26    24    1
    18    23    20    1
    19    24    25    1
    20    24    19    2
    21    22    20    1
    22    20    19    1
    23    20    21    1
    24    19    15    1
    25    17    15    1
    26    15    18    1
    27    15    16    1
