@<TRIPOS>MOLECULE
/home/jramos/PycharmProjects/GeCos/examples/01-IsoP_trueno_rdkit_mp2/01-IsoP_g16_conformers/01-IsoP_2337_gaussian.xyz
 28 27 0 0 0
SMALL
GASTEIGER

@<TRIPOS>ATOM
      1 C           0.7827    0.5563    0.3697 C.3     1  UNL1       -0.0286
      2 H           1.5019    0.1400    1.0772 H       1  UNL1        0.0313
      3 H           1.1679    0.3286   -0.6280 H       1  UNL1        0.0313
      4 C           0.6558    2.0504    0.5298 C.2     1  UNL1       -0.0765
      5 C           0.2906    2.8026   -0.7213 C.3     1  UNL1       -0.0438
      6 H           0.1400    3.8628   -0.5217 H       1  UNL1        0.0274
      7 H          -0.6273    2.4077   -1.1628 H       1  UNL1        0.0274
      8 H           1.0737    2.7036   -1.4762 H       1  UNL1        0.0274
      9 C           0.8020    2.6915    1.7042 C.2     1  UNL1       -0.0881
     10 H           0.6623    3.7691    1.7099 H       1  UNL1        0.0569
     11 C           1.1395    2.0810    3.0304 C.3     1  UNL1       -0.0466
     12 H           0.3559    2.2901    3.7609 H       1  UNL1        0.0272
     13 H           2.0653    2.5003    3.4289 H       1  UNL1        0.0272
     14 H           1.2570    1.0014    2.9721 H       1  UNL1        0.0272
     15 C          -0.5050   -3.8405   -0.7986 C.3     1  UNL1       -0.0440
     16 H          -0.1253   -4.2176    0.1497 H       1  UNL1        0.0274
     17 H           0.2041   -4.1115   -1.5840 H       1  UNL1        0.0274
     18 H          -1.4398   -4.3589   -1.0236 H       1  UNL1        0.0274
     19 C          -0.7157   -2.3520   -0.7568 C.2     1  UNL1       -0.0796
     20 C          -1.2455   -1.7568   -2.0319 C.3     1  UNL1       -0.0440
     21 H          -2.2204   -2.1837   -2.2778 H       1  UNL1        0.0274
     22 H          -1.3495   -0.6758   -1.9853 H       1  UNL1        0.0274
     23 H          -0.5782   -1.9945   -2.8631 H       1  UNL1        0.0274
     24 C          -0.4428   -1.6466    0.3570 C.2     1  UNL1       -0.0850
     25 H          -0.0432   -2.1923    1.2083 H       1  UNL1        0.0572
     26 C          -0.5682   -0.1639    0.5446 C.3     1  UNL1       -0.0308
     27 H          -1.2954    0.2613   -0.1483 H       1  UNL1        0.0310
     28 H          -0.9427    0.0477    1.5494 H       1  UNL1        0.0310
@<TRIPOS>BOND
     1    23    20    1
     2    21    20    1
     3    20    22    1
     4    20    19    1
     5    17    15    1
     6     8     5    1
     7     7     5    1
     8    18    15    1
     9    15    19    1
    10    15    16    1
    11    19    24    2
    12     5     6    1
    13     5     4    1
    14     3     1    1
    15    27    26    1
    16    24    26    1
    17    24    25    1
    18     1     4    1
    19     1    26    1
    20     1     2    1
    21     4     9    2
    22    26    28    1
    23     9    10    1
    24     9    11    1
    25    14    11    1
    26    11    13    1
    27    11    12    1
