@<TRIPOS>MOLECULE
/home/jramos/PycharmProjects/GeCos/examples/01-IsoP_trueno_rdkit_mp2/01-IsoP_g16_conformers/01-IsoP_2319_gaussian.xyz
 28 27 0 0 0
SMALL
GASTEIGER

@<TRIPOS>ATOM
      1 C           0.6158    0.6639    0.8846 C.3     1  UNL1       -0.0286
      2 H          -0.2171    0.2097    1.4236 H       1  UNL1        0.0313
      3 H           0.5549    1.7388    1.0781 H       1  UNL1        0.0313
      4 C           1.9429    0.1419    1.3752 C.2     1  UNL1       -0.0765
      5 C           3.0932    1.1072    1.2836 C.3     1  UNL1       -0.0438
      6 H           4.0316    0.6412    1.5817 H       1  UNL1        0.0274
      7 H           2.9231    1.9758    1.9234 H       1  UNL1        0.0274
      8 H           3.2098    1.4817    0.2642 H       1  UNL1        0.0274
      9 C           2.1271   -1.1153    1.8196 C.2     1  UNL1       -0.0881
     10 H           3.1302   -1.4000    2.1251 H       1  UNL1        0.0569
     11 C           1.0886   -2.1888    1.9423 C.3     1  UNL1       -0.0466
     12 H           0.9999   -2.5306    2.9753 H       1  UNL1        0.0272
     13 H           0.1070   -1.8549    1.6136 H       1  UNL1        0.0272
     14 H           1.3614   -3.0590    1.3424 H       1  UNL1        0.0272
     15 C          -3.2461    1.1851   -1.7711 C.3     1  UNL1       -0.0440
     16 H          -3.6343    0.7493   -2.6945 H       1  UNL1        0.0274
     17 H          -4.0554    1.1468   -1.0384 H       1  UNL1        0.0274
     18 H          -3.0065    2.2302   -1.9613 H       1  UNL1        0.0274
     19 C          -2.0450    0.4228   -1.2836 C.2     1  UNL1       -0.0796
     20 C          -2.2961   -1.0326   -1.0011 C.3     1  UNL1       -0.0440
     21 H          -2.6296   -1.5466   -1.9054 H       1  UNL1        0.0274
     22 H          -3.0952   -1.1401   -0.2644 H       1  UNL1        0.0274
     23 H          -1.4182   -1.5487   -0.6209 H       1  UNL1        0.0274
     24 C          -0.8546    1.0325   -1.1295 C.2     1  UNL1       -0.0850
     25 H          -0.8057    2.0968   -1.3459 H       1  UNL1        0.0572
     26 C           0.4155    0.4160   -0.6228 C.3     1  UNL1       -0.0308
     27 H           0.4384   -0.6592   -0.8047 H       1  UNL1        0.0310
     28 H           1.2647    0.8362   -1.1682 H       1  UNL1        0.0310
@<TRIPOS>BOND
     1    16    15    1
     2    18    15    1
     3    21    20    1
     4    15    19    1
     5    15    17    1
     6    25    24    1
     7    19    24    2
     8    19    20    1
     9    28    26    1
    10    24    26    1
    11    20    23    1
    12    20    22    1
    13    27    26    1
    14    26     1    1
    15     8     5    1
    16     1     3    1
    17     1     4    1
    18     1     2    1
    19     5     4    1
    20     5     6    1
    21     5     7    1
    22    14    11    1
    23     4     9    2
    24    13    11    1
    25     9    11    1
    26     9    10    1
    27    11    12    1
