@<TRIPOS>MOLECULE
/home/jramos/PycharmProjects/GeCos/examples/01-IsoP_trueno_rdkit_mp2/01-IsoP_g16_conformers/01-IsoP_394_gaussian.xyz
 28 27 0 0 0
SMALL
GASTEIGER

@<TRIPOS>ATOM
      1 C           0.9521    0.6406    0.2752 C.3     1  UNL1       -0.0286
      2 H           1.0977    1.7233    0.2194 H       1  UNL1        0.0313
      3 H           0.4187    0.4526    1.2083 H       1  UNL1        0.0313
      4 C           2.2946   -0.0460    0.2571 C.2     1  UNL1       -0.0765
      5 C           3.3662    0.6461   -0.5406 C.3     1  UNL1       -0.0438
      6 H           3.5995    1.6230   -0.1117 H       1  UNL1        0.0274
      7 H           3.0386    0.8204   -1.5679 H       1  UNL1        0.0274
      8 H           4.2831    0.0590   -0.5734 H       1  UNL1        0.0274
      9 C           2.5325   -1.2261    0.8594 C.2     1  UNL1       -0.0881
     10 H           3.5285   -1.6495    0.7631 H       1  UNL1        0.0569
     11 C           1.5628   -2.0398    1.6616 C.3     1  UNL1       -0.0466
     12 H           1.9246   -2.1858    2.6812 H       1  UNL1        0.0272
     13 H           0.5801   -1.5769    1.7169 H       1  UNL1        0.0272
     14 H           1.4382   -3.0321    1.2239 H       1  UNL1        0.0272
     15 C          -2.6577   -0.7316    0.2711 C.3     1  UNL1       -0.0440
     16 H          -3.4204   -1.3093   -0.2557 H       1  UNL1        0.0274
     17 H          -1.7614   -1.3420    0.3476 H       1  UNL1        0.0274
     18 H          -3.0346   -0.5591    1.2816 H       1  UNL1        0.0274
     19 C          -2.4168    0.5806   -0.4225 C.2     1  UNL1       -0.0796
     20 C          -3.6221    1.4754   -0.5117 C.3     1  UNL1       -0.0440
     21 H          -3.3910    2.4080   -1.0240 H       1  UNL1        0.0274
     22 H          -4.0029    1.7161    0.4835 H       1  UNL1        0.0274
     23 H          -4.4339    0.9810   -1.0500 H       1  UNL1        0.0274
     24 C          -1.2333    0.9607   -0.9398 C.2     1  UNL1       -0.0850
     25 H          -1.1805    1.9452   -1.3979 H       1  UNL1        0.0572
     26 C           0.0567    0.1965   -0.8973 C.3     1  UNL1       -0.0308
     27 H          -0.1171   -0.8772   -0.8152 H       1  UNL1        0.0310
     28 H           0.5979    0.3474   -1.8352 H       1  UNL1        0.0310
@<TRIPOS>BOND
     1    28    26    1
     2     7     5    1
     3    25    24    1
     4    23    20    1
     5    21    20    1
     6    24    26    1
     7    24    19    2
     8    26    27    1
     9    26     1    1
    10     8     5    1
    11     5     6    1
    12     5     4    1
    13    20    19    1
    14    20    22    1
    15    19    15    1
    16    16    15    1
    17     2     1    1
    18     4     1    1
    19     4     9    2
    20    15    17    1
    21    15    18    1
    22     1     3    1
    23    10     9    1
    24     9    11    1
    25    14    11    1
    26    11    13    1
    27    11    12    1
