@<TRIPOS>MOLECULE
/home/jramos/PycharmProjects/GeCos/examples/01-IsoP_trueno_rdkit_mp2/01-IsoP_g16_conformers/01-IsoP_1867_gaussian.xyz
 28 27 0 0 0
SMALL
GASTEIGER

@<TRIPOS>ATOM
      1 C          -0.9458    0.0383   -0.0438 C.3     1  UNL11      -0.0286
      2 H          -1.4470    0.8553    0.4780 H       1  UNL11       0.0313
      3 H          -0.7312    0.4046   -1.0516 H       1  UNL11       0.0313
      4 C          -1.8277   -1.1818   -0.1305 C.2     1  UNL11      -0.0765
      5 C          -1.5937   -2.0608   -1.3294 C.3     1  UNL11      -0.0438
      6 H          -1.8248   -1.5263   -2.2534 H       1  UNL11       0.0274
      7 H          -2.2067   -2.9604   -1.2921 H       1  UNL11       0.0274
      8 H          -0.5471   -2.3669   -1.3932 H       1  UNL11       0.0274
      9 C          -2.7340   -1.5172    0.8063 C.2     1  UNL11      -0.0881
     10 H          -3.2977   -2.4338    0.6556 H       1  UNL11       0.0569
     11 C          -3.0614   -0.7606    2.0577 C.3     1  UNL11      -0.0466
     12 H          -4.1137   -0.4706    2.0746 H       1  UNL11       0.0272
     13 H          -2.4624    0.1405    2.1662 H       1  UNL11       0.0272
     14 H          -2.8889   -1.3813    2.9388 H       1  UNL11       0.0272
     15 C           3.0704    2.5313    0.0595 C.3     1  UNL11      -0.0440
     16 H           3.0079    3.1490   -0.8392 H       1  UNL11       0.0274
     17 H           4.1294    2.3211    0.2259 H       1  UNL11       0.0274
     18 H           2.7018    3.1148    0.9017 H       1  UNL11       0.0274
     19 C           2.2926    1.2556   -0.1116 C.2     1  UNL11      -0.0796
     20 C           2.7478    0.3911   -1.2545 C.3     1  UNL11      -0.0440
     21 H           2.1424   -0.5033   -1.3782 H       1  UNL11       0.0274
     22 H           3.7863    0.0837   -1.1123 H       1  UNL11       0.0274
     23 H           2.7104    0.9539   -2.1895 H       1  UNL11       0.0274
     24 C           1.2781    0.9483    0.7186 C.2     1  UNL11      -0.0850
     25 H           1.0326    1.6688    1.4950 H       1  UNL11       0.0572
     26 C           0.3924   -0.2605    0.6592 C.3     1  UNL11      -0.0308
     27 H           0.8888   -1.0887    0.1519 H       1  UNL11       0.0310
     28 H           0.1777   -0.6073    1.6734 H       1  UNL11       0.0310
@<TRIPOS>BOND
     1    17    15    1
     2    22    20    1
     3    28    26    1
     4    27    26    1
     5    18    15    1
     6    15    19    1
     7    15    16    1
     8    25    24    1
     9    19    24    2
    10    19    20    1
    11    24    26    1
    12    20    21    1
    13    20    23    1
    14    26     1    1
    15    14    11    1
    16     8     5    1
    17    13    11    1
    18    11     9    1
    19    11    12    1
    20     1     4    1
    21     1     2    1
    22     1     3    1
    23     9    10    1
    24     9     4    2
    25     4     5    1
    26     5     7    1
    27     5     6    1
