@<TRIPOS>MOLECULE
/home/jramos/PycharmProjects/GeCos/examples/01-IsoP_trueno_rdkit_mp2/01-IsoP_g16_conformers/01-IsoP_3448_gaussian.xyz
 28 27 0 0 0
SMALL
GASTEIGER

@<TRIPOS>ATOM
      1 C          -0.8993   -0.6231   -0.4150 C.3     1  UNL1       -0.0286
      2 H          -0.9020   -1.5720   -0.9591 H       1  UNL1        0.0313
      3 H          -0.7481   -0.8749    0.6359 H       1  UNL1        0.0313
      4 C          -2.2150    0.0812   -0.6315 C.2     1  UNL1       -0.0765
      5 C          -2.8618   -0.1503   -1.9700 C.3     1  UNL1       -0.0438
      6 H          -3.7657    0.4463   -2.0865 H       1  UNL1        0.0274
      7 H          -3.1265   -1.2023   -2.0964 H       1  UNL1        0.0274
      8 H          -2.1798    0.1055   -2.7839 H       1  UNL1        0.0274
      9 C          -2.7704    0.9099    0.2723 C.2     1  UNL1       -0.0881
     10 H          -3.7086    1.3894    0.0069 H       1  UNL1        0.0569
     11 C          -2.2328    1.2554    1.6278 C.3     1  UNL1       -0.0466
     12 H          -1.2886    0.7581    1.8379 H       1  UNL1        0.0272
     13 H          -2.9410    0.9791    2.4113 H       1  UNL1        0.0272
     14 H          -2.0679    2.3310    1.7140 H       1  UNL1        0.0272
     15 C           2.3198    0.4199    1.4461 C.3     1  UNL1       -0.0440
     16 H           3.1535    1.1220    1.5171 H       1  UNL1        0.0274
     17 H           2.3360   -0.1823    2.3571 H       1  UNL1        0.0274
     18 H           1.3945    0.9905    1.4382 H       1  UNL1        0.0274
     19 C           2.4751   -0.4633    0.2391 C.2     1  UNL1       -0.0796
     20 C           3.7224   -1.3034    0.2309 C.3     1  UNL1       -0.0440
     21 H           4.6145   -0.6746    0.2757 H       1  UNL1        0.0274
     22 H           3.7838   -1.9196   -0.6648 H       1  UNL1        0.0274
     23 H           3.7547   -1.9611    1.1024 H       1  UNL1        0.0274
     24 C           1.5935   -0.5240   -0.7767 C.2     1  UNL1       -0.0850
     25 H           1.8075   -1.2200   -1.5840 H       1  UNL1        0.0572
     26 C           0.2974    0.2222   -0.8917 C.3     1  UNL1       -0.0308
     27 H           0.1367    0.5100   -1.9341 H       1  UNL1        0.0310
     28 H           0.3181    1.1502   -0.3191 H       1  UNL1        0.0310
@<TRIPOS>BOND
     1     8     5    1
     2     7     5    1
     3     6     5    1
     4     5     4    1
     5    27    26    1
     6    25    24    1
     7     2     1    1
     8    26    24    1
     9    26     1    1
    10    26    28    1
    11    24    19    2
    12    22    20    1
    13     4     1    1
    14     4     9    2
    15     1     3    1
    16    10     9    1
    17    20    19    1
    18    20    21    1
    19    20    23    1
    20    19    15    1
    21     9    11    1
    22    18    15    1
    23    15    16    1
    24    15    17    1
    25    11    14    1
    26    11    12    1
    27    11    13    1
