@<TRIPOS>MOLECULE
/home/jramos/PycharmProjects/GeCos/examples/01-IsoP_trueno_rdkit_mp2/01-IsoP_g16_conformers/01-IsoP_269_gaussian.xyz
 28 27 0 0 0
SMALL
GASTEIGER

@<TRIPOS>ATOM
      1 C           0.8894    0.0179    0.4184 C.3     1  UNL1       -0.0286
      2 H           0.4015   -0.1916    1.3744 H       1  UNL1        0.0313
      3 H           1.3611    0.9964    0.5241 H       1  UNL1        0.0313
      4 C           1.9084   -1.0553    0.1292 C.2     1  UNL1       -0.0765
      5 C           1.5527   -2.4306    0.6258 C.3     1  UNL1       -0.0438
      6 H           1.4862   -2.4444    1.7159 H       1  UNL1        0.0274
      7 H           2.2906   -3.1706    0.3187 H       1  UNL1        0.0274
      8 H           0.5787   -2.7457    0.2446 H       1  UNL1        0.0274
      9 C           3.0415   -0.8427   -0.5654 C.2     1  UNL1       -0.0881
     10 H           3.6928   -1.6950   -0.7387 H       1  UNL1        0.0569
     11 C           3.5178    0.4565   -1.1404 C.3     1  UNL1       -0.0466
     12 H           3.6446    0.3754   -2.2215 H       1  UNL1        0.0272
     13 H           4.4893    0.7336   -0.7266 H       1  UNL1        0.0272
     14 H           2.8256    1.2731   -0.9494 H       1  UNL1        0.0272
     15 C          -3.3400    2.1308    0.4705 C.3     1  UNL1       -0.0440
     16 H          -2.8883    3.0718    0.1604 H       1  UNL1        0.0274
     17 H          -3.5761    2.1982    1.5349 H       1  UNL1        0.0274
     18 H          -4.2895    2.0164   -0.0575 H       1  UNL1        0.0274
     19 C          -2.4314    0.9645    0.1957 C.2     1  UNL1       -0.0796
     20 C          -2.9898   -0.3739    0.5930 C.3     1  UNL1       -0.0440
     21 H          -3.2496   -0.3727    1.6537 H       1  UNL1        0.0274
     22 H          -2.2959   -1.1924    0.4197 H       1  UNL1        0.0274
     23 H          -3.9099   -0.5836    0.0429 H       1  UNL1        0.0274
     24 C          -1.2224    1.1483   -0.3676 C.2     1  UNL1       -0.0850
     25 H          -0.9251    2.1703   -0.5893 H       1  UNL1        0.0572
     26 C          -0.1954    0.0988   -0.6729 C.3     1  UNL1       -0.0308
     27 H           0.2911    0.3283   -1.6245 H       1  UNL1        0.0310
     28 H          -0.6575   -0.8817   -0.7947 H       1  UNL1        0.0310
@<TRIPOS>BOND
     1    12    11    1
     2    27    26    1
     3    11    14    1
     4    11    13    1
     5    11     9    1
     6    28    26    1
     7    10     9    1
     8    26    24    1
     9    26     1    1
    10    25    24    1
    11     9     4    2
    12    24    19    2
    13    18    15    1
    14    23    20    1
    15     4     1    1
    16     4     5    1
    17    16    15    1
    18    19    15    1
    19    19    20    1
    20     8     5    1
    21     7     5    1
    22     1     3    1
    23     1     2    1
    24    22    20    1
    25    15    17    1
    26    20    21    1
    27     5     6    1
