@<TRIPOS>MOLECULE
/home/jramos/PycharmProjects/GeCos/examples/01-IsoP_trueno_rdkit_mp2/01-IsoP_g16_conformers/01-IsoP_1905_gaussian.xyz
 28 27 0 0 0
SMALL
GASTEIGER

@<TRIPOS>ATOM
      1 C           0.8693   -0.7609   -0.1061 C.3     1  UNL1       -0.0286
      2 H           0.5572   -0.3385   -1.0625 H       1  UNL1        0.0313
      3 H           0.8350   -1.8476   -0.2265 H       1  UNL1        0.0313
      4 C           2.2727   -0.3415    0.2525 C.2     1  UNL1       -0.0765
      5 C           3.0557   -1.3309    1.0719 C.3     1  UNL1       -0.0438
      6 H           2.5168   -1.5974    1.9839 H       1  UNL1        0.0274
      7 H           3.2144   -2.2569    0.5150 H       1  UNL1        0.0274
      8 H           4.0283   -0.9329    1.3583 H       1  UNL1        0.0274
      9 C           2.7972    0.8533   -0.0780 C.2     1  UNL1       -0.0881
     10 H           3.8096    1.0683    0.2527 H       1  UNL1        0.0569
     11 C           2.1324    1.9430   -0.8633 C.3     1  UNL1       -0.0466
     12 H           1.1191    1.6810   -1.1593 H       1  UNL1        0.0272
     13 H           2.6986    2.1745   -1.7674 H       1  UNL1        0.0272
     14 H           2.0798    2.8626   -0.2775 H       1  UNL1        0.0272
     15 C          -3.8440   -0.8579   -0.2303 C.3     1  UNL1       -0.0440
     16 H          -4.0616   -0.8704   -1.3006 H       1  UNL1        0.0274
     17 H          -4.6581   -0.3119    0.2518 H       1  UNL1        0.0274
     18 H          -3.8589   -1.8841    0.1335 H       1  UNL1        0.0274
     19 C          -2.5216   -0.1949    0.0403 C.2     1  UNL1       -0.0796
     20 C          -2.4241    1.2294   -0.4315 C.3     1  UNL1       -0.0440
     21 H          -3.1757    1.8492    0.0625 H       1  UNL1        0.0274
     22 H          -2.6247    1.2849   -1.5037 H       1  UNL1        0.0274
     23 H          -1.4472    1.6706   -0.2502 H       1  UNL1        0.0274
     24 C          -1.5295   -0.8589    0.6628 C.2     1  UNL1       -0.0850
     25 H          -1.7150   -1.8947    0.9358 H       1  UNL1        0.0572
     26 C          -0.1537   -0.3453    0.9684 C.3     1  UNL1       -0.0308
     27 H           0.1708   -0.7338    1.9374 H       1  UNL1        0.0310
     28 H          -0.1432    0.7417    1.0570 H       1  UNL1        0.0310
@<TRIPOS>BOND
     1    13    11    1
     2    22    20    1
     3    16    15    1
     4    12    11    1
     5     2     1    1
     6    11    14    1
     7    11     9    1
     8    20    23    1
     9    20    19    1
    10    20    21    1
    11    15    19    1
    12    15    18    1
    13    15    17    1
    14     3     1    1
    15     1     4    1
    16     1    26    1
    17     9     4    2
    18     9    10    1
    19    19    24    2
    20     4     5    1
    21     7     5    1
    22    24    25    1
    23    24    26    1
    24    26    28    1
    25    26    27    1
    26     5     8    1
    27     5     6    1
