@<TRIPOS>MOLECULE
/home/jramos/PycharmProjects/GeCos/examples/01-IsoP_trueno_rdkit_mp2/01-IsoP_g16_conformers/01-IsoP_460_gaussian.xyz
 28 27 0 0 0
SMALL
GASTEIGER

@<TRIPOS>ATOM
      1 C          -0.3494   -0.8934    0.4259 C.3     1  UNL11      -0.0286
      2 H           0.4323   -1.4130   -0.1351 H       1  UNL11       0.0313
      3 H          -0.1776   -1.1278    1.4779 H       1  UNL11       0.0313
      4 C          -1.7019   -1.3781   -0.0315 C.2     1  UNL11      -0.0765
      5 C          -1.7945   -1.7472   -1.4874 C.3     1  UNL11      -0.0438
      6 H          -1.4740   -0.9188   -2.1234 H       1  UNL11       0.0274
      7 H          -1.1421   -2.5929   -1.7156 H       1  UNL11       0.0274
      8 H          -2.8122   -2.0144   -1.7691 H       1  UNL11       0.0274
      9 C          -2.7835   -1.4399    0.7674 C.2     1  UNL11      -0.0881
     10 H          -3.7163   -1.7798    0.3258 H       1  UNL11       0.0569
     11 C          -2.8530   -1.0862    2.2219 C.3     1  UNL11      -0.0466
     12 H          -3.5849   -0.2941    2.3907 H       1  UNL11       0.0272
     13 H          -1.8979   -0.7415    2.6110 H       1  UNL11       0.0272
     14 H          -3.1706   -1.9442    2.8175 H       1  UNL11       0.0272
     15 C           3.5669    1.7556    0.4506 C.3     1  UNL11      -0.0440
     16 H           4.3591    1.0382    0.2251 H       1  UNL11       0.0274
     17 H           3.5020    1.8646    1.5321 H       1  UNL11       0.0274
     18 H           3.8781    2.7138    0.0280 H       1  UNL11       0.0274
     19 C           2.2570    1.3111   -0.1396 C.2     1  UNL11      -0.0796
     20 C           2.2662    1.1434   -1.6338 C.3     1  UNL11      -0.0440
     21 H           3.0430    0.4343   -1.9275 H       1  UNL11       0.0274
     22 H           2.5017    2.0907   -2.1241 H       1  UNL11       0.0274
     23 H           1.3189    0.7832   -2.0269 H       1  UNL11       0.0274
     24 C           1.1838    1.0959    0.6442 C.2     1  UNL11      -0.0850
     25 H           1.3122    1.2320    1.7153 H       1  UNL11       0.0572
     26 C          -0.1728    0.6226    0.2140 C.3     1  UNL11      -0.0308
     27 H          -0.3613    0.8642   -0.8329 H       1  UNL11       0.0310
     28 H          -0.9420    1.1420    0.7914 H       1  UNL11       0.0310
@<TRIPOS>BOND
     1    12    11    1
     2    10     9    1
     3     8     5    1
     4     9    11    1
     5     9     4    2
     6     6     5    1
     7    28    26    1
     8    11    14    1
     9    11    13    1
    10    27    26    1
    11     5     4    1
    12     5     7    1
    13     4     1    1
    14    26     1    1
    15    26    24    1
    16    23    20    1
    17     1     3    1
    18     1     2    1
    19    22    20    1
    20    24    25    1
    21    24    19    2
    22    20    19    1
    23    20    21    1
    24    19    15    1
    25    18    15    1
    26    15    17    1
    27    15    16    1
