@<TRIPOS>MOLECULE
/home/jramos/PycharmProjects/GeCos/examples/01-IsoP_trueno_rdkit_mp2/01-IsoP_g16_conformers/01-IsoP_2733_gaussian.xyz
 28 27 0 0 0
SMALL
GASTEIGER

@<TRIPOS>ATOM
      1 C          -0.6400   -0.6601   -0.4791 C.3     1  UNL1       -0.0286
      2 H           0.0593   -0.8490   -1.2984 H       1  UNL1        0.0313
      3 H          -0.7253   -1.5982    0.0722 H       1  UNL1        0.0313
      4 C          -1.9707   -0.2314   -1.0440 C.2     1  UNL1       -0.0765
      5 C          -1.9014    0.5737   -2.3134 C.3     1  UNL1       -0.0438
      6 H          -1.4708   -0.0172   -3.1247 H       1  UNL1        0.0274
      7 H          -2.8875    0.9156   -2.6252 H       1  UNL1        0.0274
      8 H          -1.2634    1.4514   -2.1870 H       1  UNL1        0.0274
      9 C          -3.1520   -0.4899   -0.4528 C.2     1  UNL1       -0.0881
     10 H          -4.0491   -0.1100   -0.9340 H       1  UNL1        0.0569
     11 C          -3.3786   -1.2532    0.8166 C.3     1  UNL1       -0.0466
     12 H          -3.8885   -0.6307    1.5541 H       1  UNL1        0.0272
     13 H          -4.0147   -2.1228    0.6409 H       1  UNL1        0.0272
     14 H          -2.4498   -1.6005    1.2631 H       1  UNL1        0.0272
     15 C           3.7765   -0.1915    1.1428 C.3     1  UNL1       -0.0440
     16 H           4.3735   -0.7453    0.4147 H       1  UNL1        0.0274
     17 H           3.5541   -0.8545    1.9776 H       1  UNL1        0.0274
     18 H           4.4030    0.6241    1.5109 H       1  UNL1        0.0274
     19 C           2.5203    0.3422    0.5113 C.2     1  UNL1       -0.0796
     20 C           2.7467    1.2722   -0.6483 C.3     1  UNL1       -0.0440
     21 H           1.8220    1.6098   -1.1093 H       1  UNL1        0.0274
     22 H           3.3106    2.1517   -0.3296 H       1  UNL1        0.0274
     23 H           3.3435    0.7762   -1.4168 H       1  UNL1        0.0274
     24 C           1.3082   -0.0074    0.9816 C.2     1  UNL1       -0.0850
     25 H           1.2781   -0.7059    1.8142 H       1  UNL1        0.0572
     26 C          -0.0280    0.4110    0.4442 C.3     1  UNL1       -0.0308
     27 H           0.0425    1.3554   -0.0971 H       1  UNL1        0.0310
     28 H          -0.7184    0.5845    1.2737 H       1  UNL1        0.0310
@<TRIPOS>BOND
     1     6     5    1
     2     7     5    1
     3     5     8    1
     4     5     4    1
     5    23    20    1
     6     2     1    1
     7    21    20    1
     8     4     1    1
     9     4     9    2
    10    10     9    1
    11    20    22    1
    12    20    19    1
    13     1     3    1
    14     1    26    1
    15     9    11    1
    16    27    26    1
    17    16    15    1
    18    26    24    1
    19    26    28    1
    20    19    24    2
    21    19    15    1
    22    13    11    1
    23    11    14    1
    24    11    12    1
    25    24    25    1
    26    15    18    1
    27    15    17    1
