@<TRIPOS>MOLECULE
/home/jramos/PycharmProjects/GeCos/examples/01-IsoP_trueno_rdkit_mp2/01-IsoP_g16_conformers/01-IsoP_2179_gaussian.xyz
 28 27 0 0 0
SMALL
GASTEIGER

@<TRIPOS>ATOM
      1 C          -0.3837    0.4451   -0.5753 C.3     1  UNL1       -0.0286
      2 H          -1.2593    1.0739   -0.4047 H       1  UNL1        0.0313
      3 H           0.4802    1.1154   -0.5707 H       1  UNL1        0.0313
      4 C          -0.4643   -0.2606   -1.9054 C.2     1  UNL1       -0.0765
      5 C           0.8594   -0.5653   -2.5532 C.3     1  UNL1       -0.0438
      6 H           0.7339   -1.1412   -3.4693 H       1  UNL1        0.0274
      7 H           1.5033   -1.1361   -1.8803 H       1  UNL1        0.0274
      8 H           1.3930    0.3558   -2.7974 H       1  UNL1        0.0274
      9 C          -1.6193   -0.6499   -2.4765 C.2     1  UNL1       -0.0881
     10 H          -1.5592   -1.1756   -3.4255 H       1  UNL1        0.0569
     11 C          -3.0048   -0.4406   -1.9452 C.3     1  UNL1       -0.0466
     12 H          -3.0085    0.0786   -0.9897 H       1  UNL1        0.0272
     13 H          -3.6084    0.1385   -2.6465 H       1  UNL1        0.0272
     14 H          -3.5115   -1.3971   -1.8046 H       1  UNL1        0.0272
     15 C           0.9409    1.1996    3.9003 C.3     1  UNL1       -0.0440
     16 H           1.3760    0.6072    4.7085 H       1  UNL1        0.0274
     17 H           1.5176    2.1254    3.8408 H       1  UNL1        0.0274
     18 H          -0.0824    1.4514    4.1745 H       1  UNL1        0.0274
     19 C           0.9955    0.4493    2.5981 C.2     1  UNL1       -0.0796
     20 C           2.3788    0.0608    2.1547 C.3     1  UNL1       -0.0440
     21 H           2.8466   -0.5964    2.8911 H       1  UNL1        0.0274
     22 H           3.0111    0.9478    2.0765 H       1  UNL1        0.0274
     23 H           2.3905   -0.4440    1.1922 H       1  UNL1        0.0274
     24 C          -0.1304    0.1645    1.9172 C.2     1  UNL1       -0.0850
     25 H          -1.0696    0.5199    2.3341 H       1  UNL1        0.0572
     26 C          -0.2384   -0.5422    0.5987 C.3     1  UNL1       -0.0308
     27 H          -1.1123   -1.1988    0.6056 H       1  UNL1        0.0310
     28 H           0.6253   -1.1852    0.4239 H       1  UNL1        0.0310
@<TRIPOS>BOND
     1     6     5    1
     2    10     9    1
     3     8     5    1
     4    13    11    1
     5     5     4    1
     6     5     7    1
     7     9    11    1
     8     9     4    2
     9    11    14    1
    10    11    12    1
    11     4     1    1
    12     1     3    1
    13     1     2    1
    14     1    26    1
    15    28    26    1
    16    26    27    1
    17    26    24    1
    18    23    20    1
    19    24    25    1
    20    24    19    2
    21    22    20    1
    22    20    19    1
    23    20    21    1
    24    19    15    1
    25    17    15    1
    26    15    18    1
    27    15    16    1
