@<TRIPOS>MOLECULE
/home/jramos/PycharmProjects/GeCos/examples/01-IsoP_trueno_rdkit_mp2/01-IsoP_g16_conformers/01-IsoP_3422_gaussian.xyz
 28 27 0 0 0
SMALL
GASTEIGER

@<TRIPOS>ATOM
      1 C           0.5939   -0.1204   -1.2428 C.3     1  UNL1       -0.0286
      2 H          -0.4079   -0.5328   -1.3728 H       1  UNL1        0.0313
      3 H           0.7397    0.5913   -2.0606 H       1  UNL1        0.0313
      4 C           1.6491   -1.1949   -1.3209 C.2     1  UNL1       -0.0765
      5 C           2.9822   -0.7562   -1.8629 C.3     1  UNL1       -0.0438
      6 H           3.7161   -1.5600   -1.8198 H       1  UNL1        0.0274
      7 H           3.3749    0.0917   -1.2974 H       1  UNL1        0.0274
      8 H           2.8910   -0.4303   -2.9013 H       1  UNL1        0.0274
      9 C           1.4567   -2.4562   -0.8918 C.2     1  UNL1       -0.0881
     10 H           2.2916   -3.1474   -0.9678 H       1  UNL1        0.0569
     11 C           0.2000   -3.0276   -0.3087 C.3     1  UNL1       -0.0466
     12 H          -0.1614   -3.8673   -0.9055 H       1  UNL1        0.0272
     13 H          -0.5988   -2.2922   -0.2452 H       1  UNL1        0.0272
     14 H           0.3813   -3.4087    0.6981 H       1  UNL1        0.0272
     15 C          -2.4636    2.9808    0.5666 C.3     1  UNL1       -0.0440
     16 H          -1.9632    3.8073    0.0642 H       1  UNL1        0.0274
     17 H          -2.7535    3.3128    1.5661 H       1  UNL1        0.0274
     18 H          -3.3869    2.7597    0.0263 H       1  UNL1        0.0274
     19 C          -1.5820    1.7648    0.6416 C.2     1  UNL1       -0.0796
     20 C          -2.2033    0.5790    1.3262 C.3     1  UNL1       -0.0440
     21 H          -1.5543   -0.2930    1.3368 H       1  UNL1        0.0274
     22 H          -2.4623    0.8246    2.3586 H       1  UNL1        0.0274
     23 H          -3.1332    0.3005    0.8255 H       1  UNL1        0.0274
     24 C          -0.3379    1.7796    0.1271 C.2     1  UNL1       -0.0850
     25 H          -0.0104    2.6924   -0.3641 H       1  UNL1        0.0572
     26 C           0.6385    0.6414    0.0956 C.3     1  UNL1       -0.0308
     27 H           1.6495    1.0273    0.2516 H       1  UNL1        0.0310
     28 H           0.4542   -0.0661    0.9050 H       1  UNL1        0.0310
@<TRIPOS>BOND
     1     8     5    1
     2     3     1    1
     3     5     6    1
     4     5     4    1
     5     5     7    1
     6     2     1    1
     7     4     1    1
     8     4     9    2
     9     1    26    1
    10    10     9    1
    11    12    11    1
    12     9    11    1
    13    25    24    1
    14    11    13    1
    15    11    14    1
    16    18    15    1
    17    16    15    1
    18    26    24    1
    19    26    27    1
    20    26    28    1
    21    24    19    2
    22    15    19    1
    23    15    17    1
    24    19    20    1
    25    23    20    1
    26    20    21    1
    27    20    22    1
