@<TRIPOS>MOLECULE
/home/jramos/PycharmProjects/GeCos/examples/01-IsoP_trueno_rdkit_mp2/01-IsoP_g16_conformers/01-IsoP_3452_gaussian.xyz
 28 27 0 0 0
SMALL
GASTEIGER

@<TRIPOS>ATOM
      1 C          -0.2711   -1.1089   -0.0373 C.3     1  UNL11      -0.0286
      2 H           0.1131   -1.0650    0.9830 H       1  UNL11       0.0313
      3 H           0.3185   -1.8724   -0.5532 H       1  UNL11       0.0313
      4 C          -1.7275   -1.4990   -0.0640 C.2     1  UNL11      -0.0765
      5 C          -2.1717   -2.2638   -1.2811 C.3     1  UNL11      -0.0438
      6 H          -3.2457   -2.4453   -1.2701 H       1  UNL11       0.0274
      7 H          -1.9296   -1.7185   -2.1961 H       1  UNL11       0.0274
      8 H          -1.6615   -3.2277   -1.3415 H       1  UNL11       0.0274
      9 C          -2.6057   -1.1535    0.8958 C.2     1  UNL11      -0.0881
     10 H          -3.6396   -1.4618    0.7677 H       1  UNL11       0.0569
     11 C          -2.3165   -0.3762    2.1440 C.3     1  UNL11      -0.0466
     12 H          -2.9193    0.5333    2.1797 H       1  UNL11       0.0272
     13 H          -1.2716   -0.0836    2.2170 H       1  UNL11       0.0272
     14 H          -2.5667   -0.9577    3.0335 H       1  UNL11       0.0272
     15 C           3.6145    1.5629   -0.0974 C.3     1  UNL11      -0.0440
     16 H           3.8402    2.6263   -0.2050 H       1  UNL11       0.0274
     17 H           4.1705    1.2079    0.7732 H       1  UNL11       0.0274
     18 H           3.9901    1.0436   -0.9778 H       1  UNL11       0.0274
     19 C           2.1377    1.3454    0.0844 C.2     1  UNL11      -0.0796
     20 C           1.5430    2.0352    1.2807 C.3     1  UNL11      -0.0440
     21 H           2.0535    1.7150    2.1916 H       1  UNL11       0.0274
     22 H           1.6789    3.1165    1.2065 H       1  UNL11       0.0274
     23 H           0.4818    1.8336    1.4029 H       1  UNL11       0.0274
     24 C           1.4383    0.5878   -0.7816 C.2     1  UNL11      -0.0850
     25 H           1.9876    0.1229   -1.5964 H       1  UNL11       0.0572
     26 C          -0.0223    0.2538   -0.7119 C.3     1  UNL11      -0.0308
     27 H          -0.4370    0.2310   -1.7232 H       1  UNL11       0.0310
     28 H          -0.5818    1.0175   -0.1703 H       1  UNL11       0.0310
@<TRIPOS>BOND
     1     7     5    1
     2    27    26    1
     3    25    24    1
     4     6     5    1
     5     5     8    1
     6     5     4    1
     7    18    15    1
     8    26    24    1
     9    26    28    1
    10    26     1    1
    11    24    19    2
    12     3     1    1
    13    16    15    1
    14     4     1    1
    15     4     9    2
    16    15    19    1
    17    15    17    1
    18     1     2    1
    19    19    20    1
    20    10     9    1
    21     9    11    1
    22    22    20    1
    23    20    23    1
    24    20    21    1
    25    12    11    1
    26    11    13    1
    27    11    14    1
