@<TRIPOS>MOLECULE
/home/jramos/PycharmProjects/GeCos/examples/01-IsoP_trueno_rdkit_mp2/01-IsoP_g16_conformers/01-IsoP_1471_gaussian.xyz
 28 27 0 0 0
SMALL
GASTEIGER

@<TRIPOS>ATOM
      1 C          -0.3999   -0.8079    0.5685 C.3     1  UNL11      -0.0286
      2 H          -0.5204   -0.7213    1.6498 H       1  UNL11       0.0313
      3 H           0.5156   -1.3839    0.4077 H       1  UNL11       0.0313
      4 C          -1.5648   -1.5315   -0.0584 C.2     1  UNL11      -0.0765
      5 C          -1.2454   -2.2995   -1.3125 C.3     1  UNL11      -0.0438
      6 H          -0.5400   -3.1068   -1.1041 H       1  UNL11       0.0274
      7 H          -0.7774   -1.6541   -2.0593 H       1  UNL11       0.0274
      8 H          -2.1411   -2.7334   -1.7554 H       1  UNL11       0.0274
      9 C          -2.8233   -1.4741    0.4156 C.2     1  UNL11      -0.0881
     10 H          -3.5918   -2.0137   -0.1310 H       1  UNL11       0.0569
     11 C          -3.2976   -0.7371    1.6311 C.3     1  UNL11      -0.0466
     12 H          -2.4932   -0.2054    2.1338 H       1  UNL11       0.0272
     13 H          -3.7511   -1.4216    2.3503 H       1  UNL11       0.0272
     14 H          -4.0621   -0.0054    1.3634 H       1  UNL11       0.0272
     15 C           2.6442    0.8203   -1.2522 C.3     1  UNL11      -0.0440
     16 H           3.4848    0.1374   -1.1124 H       1  UNL11       0.0274
     17 H           2.9882    1.6114   -1.9222 H       1  UNL11       0.0274
     18 H           1.8488    0.2733   -1.7521 H       1  UNL11       0.0274
     19 C           2.2204    1.3965    0.0703 C.2     1  UNL11      -0.0796
     20 C           3.3084    2.1146    0.8200 C.3     1  UNL11      -0.0440
     21 H           2.9459    2.5142    1.7659 H       1  UNL11       0.0274
     22 H           4.1450    1.4443    1.0290 H       1  UNL11       0.0274
     23 H           3.7063    2.9425    0.2287 H       1  UNL11       0.0274
     24 C           0.9767    1.3040    0.5777 C.2     1  UNL11      -0.0850
     25 H           0.8025    1.7456    1.5558 H       1  UNL11       0.0572
     26 C          -0.1997    0.5984   -0.0285 C.3     1  UNL11      -0.0308
     27 H          -1.1077    1.1801    0.1506 H       1  UNL11       0.0310
     28 H          -0.0968    0.5187   -1.1114 H       1  UNL11       0.0310
@<TRIPOS>BOND
     1    27    26    1
     2    14    11    1
     3    28    26    1
     4    17    15    1
     5    23    20    1
     6    26    24    1
     7    26     1    1
     8    25    24    1
     9    24    19    2
    10    19    15    1
    11    19    20    1
    12    21    20    1
    13    18    15    1
    14    11    12    1
    15    11     9    1
    16    11    13    1
    17    15    16    1
    18    20    22    1
    19    10     9    1
    20     9     4    2
    21     7     5    1
    22     4     1    1
    23     4     5    1
    24     8     5    1
    25     1     2    1
    26     1     3    1
    27     5     6    1
