@<TRIPOS>MOLECULE
/home/jramos/PycharmProjects/GeCos/examples/01-IsoP_trueno_rdkit_mp2/01-IsoP_g16_conformers/01-IsoP_2536_gaussian.xyz
 28 27 0 0 0
SMALL
GASTEIGER

@<TRIPOS>ATOM
      1 C          -0.9457    0.0383   -0.0439 C.3     1  UNL11      -0.0286
      2 H          -0.7311    0.4045   -1.0516 H       1  UNL11       0.0313
      3 H          -1.4470    0.8554    0.4778 H       1  UNL11       0.0313
      4 C          -1.8276   -1.1818   -0.1305 C.2     1  UNL11      -0.0765
      5 C          -1.5937   -2.0608   -1.3292 C.3     1  UNL11      -0.0438
      6 H          -2.2065   -2.9605   -1.2920 H       1  UNL11       0.0274
      7 H          -0.5470   -2.3669   -1.3931 H       1  UNL11       0.0274
      8 H          -1.8247   -1.5264   -2.2533 H       1  UNL11       0.0274
      9 C          -2.7340   -1.5171    0.8063 C.2     1  UNL11      -0.0881
     10 H          -3.2977   -2.4337    0.6557 H       1  UNL11       0.0569
     11 C          -3.0615   -0.7605    2.0576 C.3     1  UNL11      -0.0466
     12 H          -2.4625    0.1407    2.1661 H       1  UNL11       0.0272
     13 H          -4.1138   -0.4705    2.0744 H       1  UNL11       0.0272
     14 H          -2.8890   -1.3812    2.9389 H       1  UNL11       0.0272
     15 C           3.0704    2.5313    0.0594 C.3     1  UNL11      -0.0440
     16 H           4.1294    2.3211    0.2259 H       1  UNL11       0.0274
     17 H           3.0079    3.1490   -0.8394 H       1  UNL11       0.0274
     18 H           2.7017    3.1149    0.9015 H       1  UNL11       0.0274
     19 C           2.2926    1.2556   -0.1116 C.2     1  UNL11      -0.0796
     20 C           2.7478    0.3908   -1.2544 C.3     1  UNL11      -0.0440
     21 H           2.7105    0.9537   -2.1894 H       1  UNL11       0.0274
     22 H           2.1425   -0.5034   -1.3781 H       1  UNL11       0.0274
     23 H           3.7864    0.0836   -1.1121 H       1  UNL11       0.0274
     24 C           1.2782    0.9485    0.7186 C.2     1  UNL11      -0.0850
     25 H           1.0326    1.6690    1.4949 H       1  UNL11       0.0572
     26 C           0.3924   -0.2604    0.6593 C.3     1  UNL11      -0.0308
     27 H           0.8888   -1.0888    0.1521 H       1  UNL11       0.0310
     28 H           0.1777   -0.6071    1.6734 H       1  UNL11       0.0310
@<TRIPOS>BOND
     1     8     5    1
     2     2     1    1
     3     5     6    1
     4     5     7    1
     5     5     4    1
     6    21    20    1
     7     4     1    1
     8     4     9    2
     9     1     3    1
    10     1    26    1
    11    17    15    1
    12    22    20    1
    13    20    23    1
    14    20    19    1
    15    10     9    1
    16     9    11    1
    17    13    11    1
    18    19    15    1
    19    19    24    2
    20    15    18    1
    21    15    16    1
    22    27    26    1
    23    26    24    1
    24    26    28    1
    25    24    25    1
    26    11    12    1
    27    11    14    1
