@<TRIPOS>MOLECULE
/home/jramos/PycharmProjects/GeCos/examples/01-IsoP_trueno_rdkit_mp2/01-IsoP_g16_conformers/01-IsoP_3477_gaussian.xyz
 28 27 0 0 0
SMALL
GASTEIGER

@<TRIPOS>ATOM
      1 C          -0.0871   -0.4070   -1.2058 C.3     1  UNL1       -0.0286
      2 H          -1.0794   -0.3932   -0.7523 H       1  UNL1        0.0313
      3 H          -0.1754    0.1371   -2.1505 H       1  UNL1        0.0313
      4 C           0.3759   -1.8155   -1.4812 C.2     1  UNL1       -0.0765
      5 C           1.2897   -1.9778   -2.6653 C.3     1  UNL1       -0.0438
      6 H           0.7778   -1.7056   -3.5909 H       1  UNL1        0.0274
      7 H           2.1606   -1.3241   -2.5802 H       1  UNL1        0.0274
      8 H           1.6448   -3.0032   -2.7595 H       1  UNL1        0.0274
      9 C           0.0535   -2.8674   -0.7056 C.2     1  UNL1       -0.0881
     10 H           0.4620   -3.8372   -0.9763 H       1  UNL1        0.0569
     11 C          -0.8194   -2.8547    0.5125 C.3     1  UNL1       -0.0466
     12 H          -0.2696   -3.2151    1.3840 H       1  UNL1        0.0272
     13 H          -1.1920   -1.8596    0.7446 H       1  UNL1        0.0272
     14 H          -1.6791   -3.5152    0.3843 H       1  UNL1        0.0272
     15 C          -0.6076    3.7583    0.9434 C.3     1  UNL1       -0.0440
     16 H          -0.2141    4.2852    0.0755 H       1  UNL1        0.0274
     17 H          -0.2138    4.2377    1.8425 H       1  UNL1        0.0274
     18 H          -1.6916    3.8912    0.9628 H       1  UNL1        0.0274
     19 C          -0.2469    2.2987    0.9141 C.2     1  UNL1       -0.0796
     20 C          -0.7535    1.5021    2.0844 C.3     1  UNL1       -0.0440
     21 H          -0.5040    0.4460    2.0188 H       1  UNL1        0.0274
     22 H          -1.8400    1.5875    2.1551 H       1  UNL1        0.0274
     23 H          -0.3449    1.8921    3.0193 H       1  UNL1        0.0274
     24 C           0.4782    1.7856   -0.0977 C.2     1  UNL1       -0.0850
     25 H           0.7671    2.4610   -0.8991 H       1  UNL1        0.0572
     26 C           0.8831    0.3530   -0.2811 C.3     1  UNL1       -0.0308
     27 H           0.9378   -0.1724    0.6732 H       1  UNL1        0.0310
     28 H           1.8880    0.3128   -0.7099 H       1  UNL1        0.0310
@<TRIPOS>BOND
     1     6     5    1
     2     8     5    1
     3     5     7    1
     4     5     4    1
     5     3     1    1
     6     4     1    1
     7     4     9    2
     8     1     2    1
     9     1    26    1
    10    10     9    1
    11    25    24    1
    12    28    26    1
    13     9    11    1
    14    26    24    1
    15    26    27    1
    16    24    19    2
    17    16    15    1
    18    14    11    1
    19    11    13    1
    20    11    12    1
    21    19    15    1
    22    19    20    1
    23    15    18    1
    24    15    17    1
    25    21    20    1
    26    20    22    1
    27    20    23    1
