@<TRIPOS>MOLECULE
/home/jramos/PycharmProjects/GeCos/examples/01-IsoP_trueno_rdkit_mp2/01-IsoP_g16_conformers/01-IsoP_1413_gaussian.xyz
 28 27 0 0 0
SMALL
GASTEIGER

@<TRIPOS>ATOM
      1 C          -0.9457    0.0383   -0.0439 C.3     1  UNL11      -0.0286
      2 H          -1.4470    0.8554    0.4778 H       1  UNL11       0.0313
      3 H          -0.7311    0.4044   -1.0517 H       1  UNL11       0.0313
      4 C          -1.8276   -1.1818   -0.1306 C.2     1  UNL11      -0.0765
      5 C          -1.5936   -2.0609   -1.3292 C.3     1  UNL11      -0.0438
      6 H          -1.8246   -1.5266   -2.2534 H       1  UNL11       0.0274
      7 H          -0.5469   -2.3670   -1.3930 H       1  UNL11       0.0274
      8 H          -2.2065   -2.9606   -1.2919 H       1  UNL11       0.0274
      9 C          -2.7341   -1.5171    0.8064 C.2     1  UNL11      -0.0881
     10 H          -3.2977   -2.4337    0.6557 H       1  UNL11       0.0569
     11 C          -3.0615   -0.7604    2.0576 C.3     1  UNL11      -0.0466
     12 H          -4.1139   -0.4704    2.0743 H       1  UNL11       0.0272
     13 H          -2.8891   -1.3810    2.9389 H       1  UNL11       0.0272
     14 H          -2.4626    0.1408    2.1660 H       1  UNL11       0.0272
     15 C           3.0704    2.5313    0.0594 C.3     1  UNL11      -0.0440
     16 H           2.7017    3.1150    0.9014 H       1  UNL11       0.0274
     17 H           4.1293    2.3212    0.2260 H       1  UNL11       0.0274
     18 H           3.0080    3.1490   -0.8395 H       1  UNL11       0.0274
     19 C           2.2926    1.2556   -0.1116 C.2     1  UNL11      -0.0796
     20 C           2.7479    0.3908   -1.2543 C.3     1  UNL11      -0.0440
     21 H           2.1426   -0.5035   -1.3780 H       1  UNL11       0.0274
     22 H           2.7106    0.9536   -2.1894 H       1  UNL11       0.0274
     23 H           3.7864    0.0836   -1.1119 H       1  UNL11       0.0274
     24 C           1.2781    0.9485    0.7186 C.2     1  UNL11      -0.0850
     25 H           1.0325    1.6690    1.4948 H       1  UNL11       0.0572
     26 C           0.3924   -0.2604    0.6593 C.3     1  UNL11      -0.0308
     27 H           0.1776   -0.6072    1.6734 H       1  UNL11       0.0310
     28 H           0.8888   -1.0887    0.1521 H       1  UNL11       0.0310
@<TRIPOS>BOND
     1     8     5    1
     2     6     5    1
     3     7     5    1
     4     5     4    1
     5    21    20    1
     6    22    20    1
     7    10     9    1
     8     4     9    2
     9     4     1    1
    10    23    20    1
    11    20    19    1
    12     3     1    1
    13    28    26    1
    14     9    11    1
    15     1    26    1
    16     1     2    1
    17    26    27    1
    18    26    24    1
    19    19    24    2
    20    19    15    1
    21    24    25    1
    22    11    12    1
    23    11    13    1
    24    11    14    1
    25    18    15    1
    26    15    17    1
    27    15    16    1
