@<TRIPOS>MOLECULE
/home/jramos/PycharmProjects/GeCos/examples/01-IsoP_trueno_rdkit_mp2/01-IsoP_g16_conformers/01-IsoP_1937_gaussian.xyz
 28 27 0 0 0
SMALL
GASTEIGER

@<TRIPOS>ATOM
      1 C          -0.5941    1.0075    0.0343 C.3     1  UNL1       -0.0286
      2 H          -0.2382    2.0242    0.2243 H       1  UNL1        0.0313
      3 H          -0.3358    0.7830   -1.0018 H       1  UNL1        0.0313
      4 C          -2.0842    0.9492    0.2582 C.2     1  UNL1       -0.0765
      5 C          -2.6167    1.8709    1.3214 C.3     1  UNL1       -0.0438
      6 H          -2.1044    1.7089    2.2724 H       1  UNL1        0.0274
      7 H          -2.4536    2.9154    1.0469 H       1  UNL1        0.0274
      8 H          -3.6836    1.7221    1.4827 H       1  UNL1        0.0274
      9 C          -2.9001    0.1014   -0.3957 C.2     1  UNL1       -0.0881
     10 H          -3.9560    0.1203   -0.1404 H       1  UNL1        0.0569
     11 C          -2.5122   -0.8857   -1.4545 C.3     1  UNL1       -0.0466
     12 H          -3.0412   -0.6856   -2.3883 H       1  UNL1        0.0272
     13 H          -2.7772   -1.9002   -1.1508 H       1  UNL1        0.0272
     14 H          -1.4449   -0.8711   -1.6633 H       1  UNL1        0.0272
     15 C           3.9400   -0.2867   -0.0497 C.3     1  UNL1       -0.0440
     16 H           4.2432   -0.0542   -1.0730 H       1  UNL1        0.0274
     17 H           4.5178   -1.1602    0.2608 H       1  UNL1        0.0274
     18 H           4.2183    0.5510    0.5879 H       1  UNL1        0.0274
     19 C           2.4646   -0.5687    0.0214 C.2     1  UNL1       -0.0796
     20 C           2.0020   -1.7171   -0.8320 C.3     1  UNL1       -0.0440
     21 H           2.2696   -1.5412   -1.8762 H       1  UNL1        0.0274
     22 H           2.4980   -2.6426   -0.5309 H       1  UNL1        0.0274
     23 H           0.9277   -1.8760   -0.7836 H       1  UNL1        0.0274
     24 C           1.6559    0.1707    0.8037 C.2     1  UNL1       -0.0850
     25 H           2.1076    0.9901    1.3572 H       1  UNL1        0.0572
     26 C           0.1696    0.0321    0.9504 C.3     1  UNL1       -0.0308
     27 H          -0.1114    0.2259    1.9890 H       1  UNL1        0.0310
     28 H          -0.1610   -0.9836    0.7297 H       1  UNL1        0.0310
@<TRIPOS>BOND
     1    12    11    1
     2    21    20    1
     3    14    11    1
     4    11    13    1
     5    11     9    1
     6    16    15    1
     7     3     1    1
     8    20    23    1
     9    20    22    1
    10    20    19    1
    11     9    10    1
    12     9     4    2
    13    15    19    1
    14    15    17    1
    15    15    18    1
    16    19    24    2
    17     1     2    1
    18     1     4    1
    19     1    26    1
    20     4     5    1
    21    28    26    1
    22    24    26    1
    23    24    25    1
    24    26    27    1
    25     7     5    1
    26     5     8    1
    27     5     6    1
