@<TRIPOS>MOLECULE
/home/jramos/PycharmProjects/GeCos/examples/01-IsoP_trueno_rdkit_mp2/01-IsoP_g16_conformers/01-IsoP_2165_gaussian.xyz
 28 27 0 0 0
SMALL
GASTEIGER

@<TRIPOS>ATOM
      1 C          -0.3998   -0.8078    0.5686 C.3     1  UNL11      -0.0286
      2 H           0.5156   -1.3839    0.4078 H       1  UNL11       0.0313
      3 H          -0.5204   -0.7213    1.6498 H       1  UNL11       0.0313
      4 C          -1.5648   -1.5315   -0.0584 C.2     1  UNL11      -0.0765
      5 C          -1.2455   -2.2995   -1.3125 C.3     1  UNL11      -0.0438
      6 H          -0.7775   -1.6541   -2.0593 H       1  UNL11       0.0274
      7 H          -2.1410   -2.7334   -1.7554 H       1  UNL11       0.0274
      8 H          -0.5400   -3.1068   -1.1042 H       1  UNL11       0.0274
      9 C          -2.8234   -1.4741    0.4156 C.2     1  UNL11      -0.0881
     10 H          -3.5918   -2.0137   -0.1311 H       1  UNL11       0.0569
     11 C          -3.2976   -0.7371    1.6311 C.3     1  UNL11      -0.0466
     12 H          -3.7511   -1.4217    2.3503 H       1  UNL11       0.0272
     13 H          -4.0621   -0.0055    1.3636 H       1  UNL11       0.0272
     14 H          -2.4932   -0.2054    2.1339 H       1  UNL11       0.0272
     15 C           2.6442    0.8203   -1.2522 C.3     1  UNL11      -0.0440
     16 H           3.4848    0.1373   -1.1124 H       1  UNL11       0.0274
     17 H           1.8488    0.2733   -1.7521 H       1  UNL11       0.0274
     18 H           2.9882    1.6113   -1.9222 H       1  UNL11       0.0274
     19 C           2.2204    1.3965    0.0702 C.2     1  UNL11      -0.0796
     20 C           3.3083    2.1146    0.8200 C.3     1  UNL11      -0.0440
     21 H           2.9459    2.5141    1.7660 H       1  UNL11       0.0274
     22 H           4.1450    1.4443    1.0291 H       1  UNL11       0.0274
     23 H           3.7063    2.9425    0.2288 H       1  UNL11       0.0274
     24 C           0.9767    1.3040    0.5777 C.2     1  UNL11      -0.0850
     25 H           0.8025    1.7456    1.5560 H       1  UNL11       0.0572
     26 C          -0.1997    0.5984   -0.0285 C.3     1  UNL11      -0.0308
     27 H          -1.1077    1.1800    0.1506 H       1  UNL11       0.0310
     28 H          -0.0967    0.5186   -1.1115 H       1  UNL11       0.0310
@<TRIPOS>BOND
     1     8     5    1
     2    16    15    1
     3     2     1    1
     4    22    20    1
     5     5     7    1
     6     5     6    1
     7     5     4    1
     8    15    17    1
     9    15    18    1
    10    15    19    1
    11     1     3    1
    12     1     4    1
    13     1    26    1
    14     4     9    2
    15    20    19    1
    16    20    21    1
    17    20    23    1
    18    19    24    2
    19     9    10    1
    20     9    11    1
    21    24    26    1
    22    24    25    1
    23    28    26    1
    24    26    27    1
    25    12    11    1
    26    14    11    1
    27    11    13    1
