@<TRIPOS>MOLECULE
/home/jramos/PycharmProjects/GeCos/examples/01-IsoP_trueno_rdkit_mp2/01-IsoP_g16_conformers/01-IsoP_341_gaussian.xyz
 28 27 0 0 0
SMALL
GASTEIGER

@<TRIPOS>ATOM
      1 C          -0.6465   -0.0705   -0.5588 C.3     1  UNL1       -0.0286
      2 H           0.0388    0.5268   -1.1666 H       1  UNL1        0.0313
      3 H          -0.7238   -1.0417   -1.0508 H       1  UNL1        0.0313
      4 C          -1.9859    0.6186   -0.4889 C.2     1  UNL1       -0.0765
      5 C          -1.9366    2.1226   -0.4959 C.3     1  UNL1       -0.0438
      6 H          -1.2955    2.4979    0.3049 H       1  UNL1        0.0274
      7 H          -2.9273    2.5565   -0.3662 H       1  UNL1        0.0274
      8 H          -1.5203    2.4929   -1.4353 H       1  UNL1        0.0274
      9 C          -3.1576   -0.0342   -0.3761 C.2     1  UNL1       -0.0881
     10 H          -4.0620    0.5639   -0.3067 H       1  UNL1        0.0569
     11 C          -3.3640   -1.5178   -0.3324 C.3     1  UNL1       -0.0466
     12 H          -4.0040   -1.8471   -1.1532 H       1  UNL1        0.0272
     13 H          -2.4284   -2.0687   -0.3935 H       1  UNL1        0.0272
     14 H          -3.8608   -1.8100    0.5946 H       1  UNL1        0.0272
     15 C           2.7393    1.1589    0.9434 C.3     1  UNL1       -0.0440
     16 H           3.3096    1.3721    1.8503 H       1  UNL1        0.0274
     17 H           3.3227    1.5464    0.1055 H       1  UNL1        0.0274
     18 H           1.8076    1.7168    0.9885 H       1  UNL1        0.0274
     19 C           2.5310   -0.3221    0.7876 C.2     1  UNL1       -0.0796
     20 C           3.7968   -1.1250    0.6660 C.3     1  UNL1       -0.0440
     21 H           4.4304   -0.9868    1.5451 H       1  UNL1        0.0274
     22 H           4.3810   -0.8025   -0.1989 H       1  UNL1        0.0274
     23 H           3.5875   -2.1883    0.5599 H       1  UNL1        0.0274
     24 C           1.3264   -0.9227    0.7589 C.2     1  UNL1       -0.0850
     25 H           1.3093   -2.0009    0.6197 H       1  UNL1        0.0572
     26 C          -0.0180   -0.2623    0.8348 C.3     1  UNL1       -0.0308
     27 H          -0.6943   -0.8764    1.4351 H       1  UNL1        0.0310
     28 H           0.0448    0.7036    1.3377 H       1  UNL1        0.0310
@<TRIPOS>BOND
     1     8     5    1
     2     2     1    1
     3    12    11    1
     4     3     1    1
     5     1     4    1
     6     1    26    1
     7     5     4    1
     8     5     7    1
     9     5     6    1
    10     4     9    2
    11    13    11    1
    12     9    11    1
    13     9    10    1
    14    11    14    1
    15    22    20    1
    16    17    15    1
    17    23    20    1
    18    25    24    1
    19    20    19    1
    20    20    21    1
    21    24    19    2
    22    24    26    1
    23    19    15    1
    24    26    28    1
    25    26    27    1
    26    15    18    1
    27    15    16    1
