@<TRIPOS>MOLECULE
/home/jramos/PycharmProjects/GeCos/examples/01-IsoP_trueno_rdkit_mp2/01-IsoP_g16_conformers/01-IsoP_203_gaussian.xyz
 28 27 0 0 0
SMALL
GASTEIGER

@<TRIPOS>ATOM
      1 C          -0.9450   -0.1213   -0.4548 C.3     1  UNL11      -0.0286
      2 H          -1.1421    0.2679   -1.4579 H       1  UNL11       0.0313
      3 H          -1.1000    0.7126    0.2315 H       1  UNL11       0.0313
      4 C          -1.8910   -1.2595   -0.1653 C.2     1  UNL11      -0.0765
      5 C          -2.2912   -2.0886   -1.3551 C.3     1  UNL11      -0.0438
      6 H          -1.4127   -2.4760   -1.8759 H       1  UNL11       0.0274
      7 H          -2.8489   -1.4879   -2.0770 H       1  UNL11       0.0274
      8 H          -2.9114   -2.9351   -1.0630 H       1  UNL11       0.0274
      9 C          -2.3216   -1.5697    1.0718 C.2     1  UNL11      -0.0881
     10 H          -2.9810   -2.4271    1.1757 H       1  UNL11       0.0569
     11 C          -1.9891   -0.8560    2.3469 C.3     1  UNL11      -0.0466
     12 H          -2.8923   -0.4806    2.8318 H       1  UNL11       0.0272
     13 H          -1.5081   -1.5347    3.0538 H       1  UNL11       0.0272
     14 H          -1.3188   -0.0144    2.1878 H       1  UNL11       0.0272
     15 C           1.9887    1.3822    1.5568 C.3     1  UNL11      -0.0440
     16 H           1.6246    2.3435    1.9259 H       1  UNL11       0.0274
     17 H           1.3184    0.6078    1.9211 H       1  UNL11       0.0274
     18 H           2.9711    1.2230    2.0070 H       1  UNL11       0.0274
     19 C           2.0936    1.4099    0.0572 C.2     1  UNL11      -0.0796
     20 C           2.9783    2.4952   -0.4915 C.3     1  UNL11      -0.0440
     21 H           3.0189    2.4665   -1.5793 H       1  UNL11       0.0274
     22 H           3.9964    2.3973   -0.1082 H       1  UNL11       0.0274
     23 H           2.6192    3.4810   -0.1877 H       1  UNL11       0.0274
     24 C           1.4656    0.5480   -0.7648 C.2     1  UNL11      -0.0850
     25 H           1.6036    0.6855   -1.8343 H       1  UNL11       0.0572
     26 C           0.5306   -0.5563   -0.3695 C.3     1  UNL11      -0.0308
     27 H           0.6866   -1.4156   -1.0271 H       1  UNL11       0.0310
     28 H           0.7318   -0.9074    0.6434 H       1  UNL11       0.0310
@<TRIPOS>BOND
     1     7     5    1
     2     2     1    1
     3    21    20    1
     4    25    24    1
     5    23    20    1
     6     5     6    1
     7     5     8    1
     8     5     4    1
     9    20    19    1
    10    20    22    1
    11     3     1    1
    12     1     4    1
    13     1    26    1
    14    24    19    2
    15    24    26    1
    16     4     9    2
    17    19    15    1
    18    26    27    1
    19    26    28    1
    20    16    15    1
    21     9    10    1
    22     9    11    1
    23    15    17    1
    24    15    18    1
    25    14    11    1
    26    12    11    1
    27    11    13    1
