@<TRIPOS>MOLECULE
/home/jramos/PycharmProjects/GeCos/examples/01-IsoP_trueno_rdkit_mp2/01-IsoP_g16_conformers/01-IsoP_3119_gaussian.xyz
 28 27 0 0 0
SMALL
GASTEIGER

@<TRIPOS>ATOM
      1 C           0.5742    0.0810   -0.9177 C.3     1  UNL1       -0.0286
      2 H           0.6716    1.0776   -1.3517 H       1  UNL1        0.0313
      3 H          -0.2083   -0.4265   -1.4886 H       1  UNL1        0.0313
      4 C           1.8616   -0.6960   -1.0302 C.2     1  UNL1       -0.0765
      5 C           1.7052   -2.1894   -1.1284 C.3     1  UNL1       -0.0438
      6 H           1.1732   -2.4647   -2.0418 H       1  UNL1        0.0274
      7 H           1.1209   -2.5786   -0.2915 H       1  UNL1        0.0274
      8 H           2.6705   -2.6941   -1.1294 H       1  UNL1        0.0274
      9 C           3.0821   -0.1294   -0.9971 C.2     1  UNL1       -0.0881
     10 H           3.9442   -0.7877   -1.0595 H       1  UNL1        0.0569
     11 C           3.3967    1.3310   -0.8799 C.3     1  UNL1       -0.0466
     12 H           4.0018    1.5243    0.0078 H       1  UNL1        0.0272
     13 H           2.5012    1.9438   -0.8089 H       1  UNL1        0.0272
     14 H           3.9747    1.6760   -1.7393 H       1  UNL1        0.0272
     15 C          -3.6410    1.3291    0.8230 C.3     1  UNL1       -0.0440
     16 H          -4.1933    1.1700    1.7519 H       1  UNL1        0.0274
     17 H          -3.3681    2.3817    0.7642 H       1  UNL1        0.0274
     18 H          -4.3288    1.1070    0.0040 H       1  UNL1        0.0274
     19 C          -2.4296    0.4400    0.7620 C.2     1  UNL1       -0.0796
     20 C          -2.7263   -1.0318    0.8433 C.3     1  UNL1       -0.0440
     21 H          -3.2182   -1.2718    1.7885 H       1  UNL1        0.0274
     22 H          -1.8366   -1.6502    0.7563 H       1  UNL1        0.0274
     23 H          -3.4152   -1.3207    0.0467 H       1  UNL1        0.0274
     24 C          -1.1941    0.9626    0.6480 C.2     1  UNL1       -0.0850
     25 H          -1.1141    2.0446    0.5771 H       1  UNL1        0.0572
     26 C           0.1010    0.2135    0.5427 C.3     1  UNL1       -0.0308
     27 H           0.8749    0.7388    1.1083 H       1  UNL1        0.0310
     28 H           0.0195   -0.7796    0.9865 H       1  UNL1        0.0310
@<TRIPOS>BOND
     1     6     5    1
     2    14    11    1
     3     3     1    1
     4     2     1    1
     5     8     5    1
     6     5     4    1
     7     5     7    1
     8    10     9    1
     9     4     9    2
    10     4     1    1
    11     9    11    1
    12     1    26    1
    13    11    13    1
    14    11    12    1
    15    18    15    1
    16    23    20    1
    17    26    24    1
    18    26    28    1
    19    26    27    1
    20    25    24    1
    21    24    19    2
    22    22    20    1
    23    19    15    1
    24    19    20    1
    25    17    15    1
    26    15    16    1
    27    20    21    1
