@<TRIPOS>MOLECULE
/home/jramos/Documentos/___MIS_PETICIONES_PROYECTOS___/2019-Proyecto-PN-GenCon/13-Resultados/2022-Spectra_IR/11-EVOH-EVA_extractMD/01-FREQ/FREQ_g16_results/C12H26O3_pair_037_041_allign_FREQ_g16.xyz
 41 39 0 0 0
SMALL
GASTEIGER

@<TRIPOS>ATOM
      1 H          -1.0890   -1.8373    0.3626 H       1  UNL11       0.0231
      2 C          -1.8534   -1.6850   -0.4180 C.3     1  UNL11      -0.0629
      3 C          -2.9638   -0.7301    0.0658 C.3     1  UNL11      -0.0297
      4 H          -1.3461   -1.2788   -1.3032 H       1  UNL11       0.0231
      5 H          -2.2695   -2.6714   -0.6796 H       1  UNL11       0.0231
      6 H          -3.5141   -1.1798    0.9114 H       1  UNL11       0.0287
      7 H          -3.6979   -0.5686   -0.7436 H       1  UNL11       0.0287
      8 C          -2.4395    0.6437    0.5208 C.3     1  UNL11       0.0548
      9 C          -3.5663    1.5760    1.0215 C.3     1  UNL11      -0.0297
     10 H          -1.7192    0.4889    1.3529 H       1  UNL11       0.0593
     11 H          -4.1079    1.0604    1.8346 H       1  UNL11       0.0287
     12 H          -4.2860    1.7261    0.1979 H       1  UNL11       0.0287
     13 O          -1.7449    1.2159   -0.6199 O.3     1  UNL11      -0.3918
     14 H          -1.3864    2.0813   -0.3463 H       1  UNL11       0.2098
     15 C          -3.0559    2.9406    1.5321 C.3     1  UNL11      -0.0629
     16 H          -2.3124    2.8134    2.3372 H       1  UNL11       0.0231
     17 H          -3.8797    3.5549    1.9273 H       1  UNL11       0.0231
     18 H          -2.5811    3.5251    0.7251 H       1  UNL11       0.0231
     19 H           4.2052   -0.5429    0.1114 H       2  UNL22       0.0231
     20 C           4.0364    0.5442    0.0637 C.3     2  UNL22      -0.0619
     21 C           2.6895    0.8546   -0.6213 C.3     2  UNL22      -0.0185
     22 H           4.0755    0.9350    1.0934 H       2  UNL22       0.0231
     23 H           4.8723    0.9950   -0.4935 H       2  UNL22       0.0231
     24 H           2.7269    0.5705   -1.6837 H       2  UNL22       0.0298
     25 H           2.4912    1.9408   -0.5996 H       2  UNL22       0.0298
     26 C           1.4713    0.1377    0.0006 C.3     2  UNL22       0.1026
     27 C           1.2358    0.3986    1.4993 C.3     2  UNL22      -0.0185
     28 H           0.5644    0.3959   -0.5684 H       2  UNL22       0.0733
     29 H           2.1063    0.0459    2.0769 H       2  UNL22       0.0298
     30 H           0.3830   -0.2242    1.8157 H       2  UNL22       0.0298
     31 O           1.6517   -1.3336   -0.0911 O.3     2  UNL22      -0.4616
     32 C           1.4029   -1.9140   -1.3072 C.2     2  UNL22       0.3042
     33 O           1.1051   -1.3015   -2.3258 O.2     2  UNL22      -0.2512
     34 C           1.4915   -3.4297   -1.1950 C.3     2  UNL22       0.0332
     35 H           1.6500   -3.8609   -2.1911 H       2  UNL22       0.0342
     36 H           2.2906   -3.7360   -0.5056 H       2  UNL22       0.0342
     37 H           0.5355   -3.8052   -0.7947 H       2  UNL22       0.0342
     38 C           0.9515    1.8799    1.8217 C.3     2  UNL22      -0.0619
     39 H           0.6820    2.0076    2.8817 H       2  UNL22       0.0231
     40 H           0.1125    2.2627    1.2182 H       2  UNL22       0.0231
     41 H           1.8254    2.5187    1.6197 H       2  UNL22       0.0231
@<TRIPOS>BOND
     1    29    27    1
     2    30    27    1
     3    39    38    1
     4    36    34    1
     5     6     3    1
     6     1     2    1
     7    37    34    1
     8    27    38    1
     9    27    26    1
    10    11     9    1
    11    10     8    1
    12    38    41    1
    13    38    40    1
    14    34    35    1
    15    34    32    1
    16     5     2    1
    17    16    15    1
    18    31    26    1
    19    31    32    1
    20    22    20    1
    21    19    20    1
    22     2     3    1
    23     2     4    1
    24     3     8    1
    25     3     7    1
    26     8     9    1
    27     8    13    1
    28     9    15    1
    29     9    12    1
    30    26    28    1
    31    26    21    1
    32    20    23    1
    33    20    21    1
    34    17    15    1
    35    15    18    1
    36    32    33    2
    37    21    25    1
    38    21    24    1
    39    13    14    1
