@<TRIPOS>MOLECULE
/home/jramos/Documentos/___MIS_PETICIONES_PROYECTOS___/2019-Proyecto-PN-GenCon/13-Resultados/2022-Spectra_IR/11-EVOH-EVA_extractMD/01-FREQ/FREQ_g16_results/C12H26O3_pair_003_098_allign_FREQ_g16.xyz
 41 39 0 0 0
SMALL
GASTEIGER

@<TRIPOS>ATOM
      1 H          -3.2827   -2.0291    0.9689 H       1  UNL11       0.0231
      2 C          -4.0191   -1.5959    0.2759 C.3     1  UNL11      -0.0629
      3 C          -3.3378   -0.5686   -0.6498 C.3     1  UNL11      -0.0297
      4 H          -4.4834   -2.4127   -0.2994 H       1  UNL11       0.0231
      5 H          -4.8067   -1.1195    0.8843 H       1  UNL11       0.0231
      6 H          -4.0827   -0.1059   -1.3226 H       1  UNL11       0.0287
      7 H          -2.6000   -1.0774   -1.2970 H       1  UNL11       0.0287
      8 C          -2.6047    0.5492    0.1298 C.3     1  UNL11       0.0548
      9 C          -1.9477    1.5900   -0.8106 C.3     1  UNL11      -0.0297
     10 H          -3.3331    1.0678    0.7827 H       1  UNL11       0.0593
     11 H          -2.6984    1.9492   -1.5380 H       1  UNL11       0.0287
     12 H          -1.1680    1.0685   -1.3955 H       1  UNL11       0.0287
     13 O          -1.6269   -0.0096    1.0418 O.3     1  UNL11      -0.3918
     14 H          -1.0499   -0.5912    0.4940 H       1  UNL11       0.2098
     15 C          -1.3397    2.7861   -0.0504 C.3     1  UNL11      -0.0629
     16 H          -0.7860    3.4601   -0.7237 H       1  UNL11       0.0231
     17 H          -0.6520    2.4356    0.7340 H       1  UNL11       0.0231
     18 H          -2.1273    3.3787    0.4448 H       1  UNL11       0.0231
     19 H           1.0230    2.0304   -1.7501 H       2  UNL22       0.0231
     20 C           2.1062    1.9051   -1.5963 C.3     2  UNL22      -0.0619
     21 C           2.4339    1.7008   -0.1034 C.3     2  UNL22      -0.0185
     22 H           2.4348    1.0383   -2.1902 H       2  UNL22       0.0231
     23 H           2.6107    2.7993   -1.9941 H       2  UNL22       0.0231
     24 H           2.1121    2.5840    0.4755 H       2  UNL22       0.0298
     25 H           3.5247    1.6046    0.0398 H       2  UNL22       0.0298
     26 C           1.7381    0.4763    0.5120 C.3     2  UNL22       0.1026
     27 C           2.0652    0.2424    1.9956 C.3     2  UNL22      -0.0185
     28 H           0.6517    0.5477    0.3791 H       2  UNL22       0.0733
     29 H           1.8381    1.1803    2.5326 H       2  UNL22       0.0298
     30 H           3.1525    0.0747    2.0945 H       2  UNL22       0.0298
     31 O           2.2204   -0.7104   -0.2516 O.3     2  UNL22      -0.4616
     32 C           1.3211   -1.5515   -0.8202 C.2     2  UNL22       0.3042
     33 O           0.0947   -1.4710   -0.7219 O.2     2  UNL22      -0.2512
     34 C           2.0352   -2.6236   -1.6295 C.3     2  UNL22       0.0332
     35 H           2.5090   -2.1629   -2.5108 H       2  UNL22       0.0342
     36 H           2.8336   -3.0859   -1.0310 H       2  UNL22       0.0342
     37 H           1.3120   -3.3806   -1.9548 H       2  UNL22       0.0342
     38 C           1.2729   -0.9218    2.6257 C.3     2  UNL22      -0.0619
     39 H           1.4747   -1.8671    2.0972 H       2  UNL22       0.0231
     40 H           0.1909   -0.7275    2.5801 H       2  UNL22       0.0231
     41 H           1.5563   -1.0626    3.6806 H       2  UNL22       0.0231
@<TRIPOS>BOND
     1    35    34    1
     2    22    20    1
     3    23    20    1
     4    37    34    1
     5    19    20    1
     6    34    36    1
     7    34    32    1
     8    20    21    1
     9    11     9    1
    10    12     9    1
    11     6     3    1
    12     7     3    1
    13    32    33    2
    14    32    31    1
    15     9    15    1
    16     9     8    1
    17    16    15    1
    18     3     8    1
    19     3     2    1
    20     4     2    1
    21    31    26    1
    22    21    25    1
    23    21    24    1
    24    21    26    1
    25    15    18    1
    26    15    17    1
    27     8    10    1
    28     8    13    1
    29     2     5    1
    30     2     1    1
    31    28    26    1
    32    14    13    1
    33    26    27    1
    34    27    30    1
    35    27    29    1
    36    27    38    1
    37    39    38    1
    38    40    38    1
    39    38    41    1
