@<TRIPOS>MOLECULE
/home/jramos/Documentos/___MIS_PETICIONES_PROYECTOS___/2019-Proyecto-PN-GenCon/13-Resultados/2022-Spectra_IR/11-EVOH-EVA_extractMD/01-FREQ/FREQ_g16_results/C12H26O3_pair_001_018_allign_FREQ_g16.xyz
 41 39 0 0 0
SMALL
GASTEIGER

@<TRIPOS>ATOM
      1 H          -4.4826   -2.4133   -0.2980 H       1  UNL11       0.0231
      2 C          -4.0184   -1.5960    0.2769 C.3     1  UNL11      -0.0629
      3 C          -3.3375   -0.5691   -0.6495 C.3     1  UNL11      -0.0297
      4 H          -4.8060   -1.1196    0.8852 H       1  UNL11       0.0231
      5 H          -3.2818   -2.0289    0.9699 H       1  UNL11       0.0231
      6 H          -4.0827   -0.1069   -1.3224 H       1  UNL11       0.0287
      7 H          -2.5997   -1.0780   -1.2966 H       1  UNL11       0.0287
      8 C          -2.6046    0.5493    0.1295 C.3     1  UNL11       0.0548
      9 C          -1.9476    1.5896   -0.8117 C.3     1  UNL11      -0.0297
     10 H          -3.3331    1.0683    0.7819 H       1  UNL11       0.0593
     11 H          -2.6983    1.9480   -1.5394 H       1  UNL11       0.0287
     12 H          -1.1677    1.0678   -1.3962 H       1  UNL11       0.0287
     13 O          -1.6266   -0.0087    1.0418 O.3     1  UNL11      -0.3918
     14 H          -1.0496   -0.5906    0.4944 H       1  UNL11       0.2098
     15 C          -1.3399    2.7864   -0.0523 C.3     1  UNL11      -0.0629
     16 H          -2.1277    3.3790    0.4424 H       1  UNL11       0.0231
     17 H          -0.7865    3.4600   -0.7262 H       1  UNL11       0.0231
     18 H          -0.6521    2.4366    0.7321 H       1  UNL11       0.0231
     19 H           1.0225    2.0326   -1.7481 H       2  UNL22       0.0231
     20 C           2.1056    1.9061   -1.5952 C.3     2  UNL22      -0.0619
     21 C           2.4342    1.7008   -0.1027 C.3     2  UNL22      -0.0185
     22 H           2.4330    1.0392   -2.1898 H       2  UNL22       0.0231
     23 H           2.6107    2.8000   -1.9930 H       2  UNL22       0.0231
     24 H           2.1132    2.5837    0.4769 H       2  UNL22       0.0298
     25 H           3.5250    1.6039    0.0397 H       2  UNL22       0.0298
     26 C           1.7383    0.4762    0.5124 C.3     2  UNL22       0.1026
     27 C           2.0656    0.2415    1.9958 C.3     2  UNL22      -0.0185
     28 H           0.6519    0.5478    0.3797 H       2  UNL22       0.0733
     29 H           1.8390    1.1793    2.5332 H       2  UNL22       0.0298
     30 H           3.1529    0.0736    2.0945 H       2  UNL22       0.0298
     31 O           2.2202   -0.7104   -0.2517 O.3     2  UNL22      -0.4616
     32 C           1.3207   -1.5514   -0.8202 C.2     2  UNL22       0.3042
     33 O           0.0944   -1.4710   -0.7213 O.2     2  UNL22      -0.2512
     34 C           2.0345   -2.6232   -1.6302 C.3     2  UNL22       0.0332
     35 H           1.3111   -3.3799   -1.9554 H       2  UNL22       0.0342
     36 H           2.5082   -2.1622   -2.5114 H       2  UNL22       0.0342
     37 H           2.8329   -3.0859   -1.0318 H       2  UNL22       0.0342
     38 C           1.2730   -0.9225    2.6257 C.3     2  UNL22      -0.0619
     39 H           0.1911   -0.7278    2.5804 H       2  UNL22       0.0231
     40 H           1.5566   -1.0639    3.6803 H       2  UNL22       0.0231
     41 H           1.4743   -1.8676    2.0967 H       2  UNL22       0.0231
@<TRIPOS>BOND
     1    36    34    1
     2    22    20    1
     3    23    20    1
     4    35    34    1
     5    19    20    1
     6    34    37    1
     7    34    32    1
     8    20    21    1
     9    11     9    1
    10    12     9    1
    11     6     3    1
    12     7     3    1
    13    32    33    2
    14    32    31    1
    15     9    15    1
    16     9     8    1
    17    17    15    1
    18     3     8    1
    19     3     2    1
    20     1     2    1
    21    31    26    1
    22    21    25    1
    23    21    24    1
    24    21    26    1
    25    15    16    1
    26    15    18    1
    27     8    10    1
    28     8    13    1
    29     2     4    1
    30     2     5    1
    31    28    26    1
    32    14    13    1
    33    26    27    1
    34    27    30    1
    35    27    29    1
    36    27    38    1
    37    41    38    1
    38    39    38    1
    39    38    40    1
