@<TRIPOS>MOLECULE
/home/jramos/Documentos/___MIS_PETICIONES_PROYECTOS___/2019-Proyecto-PN-GenCon/13-Resultados/2022-Spectra_IR/11-EVOH-EVA_extractMD/01-FREQ/FREQ_g16_results/C12H26O3_pair_004_088_allign_FREQ_g16.xyz
 41 39 0 0 0
SMALL
GASTEIGER

@<TRIPOS>ATOM
      1 H          -3.0953   -2.6674   -0.8127 H       1  UNL11       0.0231
      2 C          -3.1839   -2.5025    0.2711 C.3     1  UNL11      -0.0629
      3 C          -3.5371   -1.0302    0.5605 C.3     1  UNL11      -0.0297
      4 H          -3.9531   -3.1867    0.6640 H       1  UNL11       0.0231
      5 H          -2.2208   -2.7780    0.7348 H       1  UNL11       0.0231
      6 H          -3.6718   -0.8770    1.6461 H       1  UNL11       0.0287
      7 H          -4.4986   -0.7746    0.0804 H       1  UNL11       0.0287
      8 C          -2.4709   -0.0385    0.0563 C.3     1  UNL11       0.0548
      9 C          -2.8056    1.4246    0.4351 C.3     1  UNL11      -0.0297
     10 H          -1.4992   -0.3033    0.5278 H       1  UNL11       0.0593
     11 H          -2.8816    1.4900    1.5365 H       1  UNL11       0.0287
     12 H          -3.8046    1.6663    0.0303 H       1  UNL11       0.0287
     13 O          -2.3755   -0.2070   -1.3770 O.3     1  UNL11      -0.3918
     14 H          -1.5108    0.1749   -1.6474 H       1  UNL11       0.2098
     15 C          -1.7751    2.4505   -0.0793 C.3     1  UNL11      -0.0629
     16 H          -1.7327    2.4459   -1.1790 H       1  UNL11       0.0231
     17 H          -0.7609    2.2182    0.2837 H       1  UNL11       0.0231
     18 H          -2.0324    3.4712    0.2459 H       1  UNL11       0.0231
     19 H           3.5820   -0.1309   -1.9372 H       2  UNL22       0.0231
     20 C           3.9033    0.8112   -1.4671 C.3     2  UNL22      -0.0619
     21 C           3.7928    0.7217    0.0690 C.3     2  UNL22      -0.0185
     22 H           4.9416    1.0059   -1.7775 H       2  UNL22       0.0231
     23 H           3.2655    1.6155   -1.8659 H       2  UNL22       0.0231
     24 H           4.1875    1.6439    0.5315 H       2  UNL22       0.0298
     25 H           4.4097   -0.1119    0.4485 H       2  UNL22       0.0298
     26 C           2.3498    0.5392    0.5692 C.3     2  UNL22       0.1026
     27 C           2.2200    0.4233    2.0968 C.3     2  UNL22      -0.0185
     28 H           1.7128    1.3529    0.1882 H       2  UNL22       0.0733
     29 H           2.6679    1.3313    2.5378 H       2  UNL22       0.0298
     30 H           2.8306   -0.4299    2.4410 H       2  UNL22       0.0298
     31 O           1.8293   -0.7331    0.0052 O.3     2  UNL22      -0.4616
     32 C           0.8686   -0.6663   -0.9564 C.2     2  UNL22       0.3042
     33 O           0.4286    0.3866   -1.4268 O.2     2  UNL22      -0.2512
     34 C           0.4046   -2.0455   -1.3872 C.3     2  UNL22       0.0332
     35 H           0.7268   -2.8248   -0.6855 H       2  UNL22       0.0342
     36 H          -0.6904   -2.0206   -1.4777 H       2  UNL22       0.0342
     37 H           0.8209   -2.2616   -2.3843 H       2  UNL22       0.0342
     38 C           0.7630    0.2635    2.5776 C.3     2  UNL22      -0.0619
     39 H           0.7124    0.1980    3.6755 H       2  UNL22       0.0231
     40 H           0.3143   -0.6517    2.1621 H       2  UNL22       0.0231
     41 H           0.1405    1.1154    2.2594 H       2  UNL22       0.0231
@<TRIPOS>BOND
     1    16    15    1
     2    18    15    1
     3    23    20    1
     4    15    17    1
     5    15     9    1
     6    14    13    1
     7    22    20    1
     8    12     9    1
     9    33    32    2
    10    20    19    1
    11    20    21    1
    12    13     8    1
    13     9     8    1
    14     9    11    1
    15    28    26    1
    16    37    34    1
    17    24    21    1
    18    32    34    1
    19    32    31    1
    20     8    10    1
    21     8     3    1
    22    21    26    1
    23    21    25    1
    24     7     3    1
    25    36    34    1
    26    26    31    1
    27    26    27    1
    28    34    35    1
    29     3     6    1
    30     3     2    1
    31     1     2    1
    32    41    38    1
    33    29    27    1
    34     2     5    1
    35     2     4    1
    36    27    38    1
    37    27    30    1
    38    38    40    1
    39    38    39    1
