@<TRIPOS>MOLECULE
/home/jramos/Programacion/GITHUB_REPO_DIR/gecos2/data/IsoP.pdb
 28 27 0 0 0
SMALL
GASTEIGER

@<TRIPOS>ATOM
      1  C1         2.0880    1.2530   -8.9850 C.3     1  T_I1       -0.0286
      2  HC1        1.7950    0.2510   -9.2200 H       1  T_I1        0.0313
      3  HC3        1.9360    1.8780   -9.8400 H       1  T_I1        0.0313
      4  C1         3.5670    1.2740   -8.5940 C.2     1  T_I1       -0.0765
      5  C4         4.2430    2.6030   -8.2070 C.3     1  T_I1       -0.0438
      6  H41        5.2890    2.5810   -8.5120 H       1  T_I1        0.0274
      7  H42        3.7350    3.4280   -8.7070 H       1  T_I1        0.0274
      8  H43        4.1820    2.7410   -7.1270 H       1  T_I1        0.0274
      9  C2         4.2750    0.1360   -8.5870 C.2     1  T_I1       -0.0881
     10  H2         3.8050   -0.7870   -8.8560 H       1  T_I1        0.0569
     11  C3         5.7530    0.1570   -8.1950 C.3     1  T_I1       -0.0466
     12  H31        6.0470    1.1590   -7.9610 H       1  T_I1        0.0272
     13  H32        5.9050   -0.4680   -7.3400 H       1  T_I1        0.0272
     14  H33        6.3440   -0.2050   -9.0110 H       1  T_I1        0.0272
     15  C         -2.4270    2.8700   -8.6020 C.3     1  T_I1       -0.0440
     16  HC1       -2.7200    1.8680   -8.8370 H       1  T_I1        0.0274
     17  HC2       -3.0180    3.2330   -7.7860 H       1  T_I1        0.0274
     18  HC3       -2.5790    3.4960   -9.4570 H       1  T_I1        0.0274
     19  C1        -0.9480    2.8910   -8.2100 C.2     1  T_I1       -0.0796
     20  C4        -0.2730    4.2200   -7.8230 C.3     1  T_I1       -0.0440
     21  H41        0.7740    4.1990   -8.1290 H       1  T_I1        0.0274
     22  H42       -0.7800    5.0450   -8.3240 H       1  T_I1        0.0274
     23  H43       -0.3330    4.3580   -6.7440 H       1  T_I1        0.0274
     24  C2        -0.2410    1.7530   -8.2030 C.2     1  T_I1       -0.0850
     25  H2        -0.7100    0.8300   -8.4720 H       1  T_I1        0.0572
     26  C3         1.2380    1.7740   -7.8120 C.3     1  T_I1       -0.0308
     27  H31        1.5310    2.7760   -7.5770 H       1  T_I1        0.0310
     28  H32        1.3900    1.1490   -6.9570 H       1  T_I1        0.0310
@<TRIPOS>BOND
     1     1     4    1
     2     1     2    1
     3     1     3    1
     4     1    26    1
     5     4     9    2
     6     4     5    1
     7     5     6    1
     8     5     7    1
     9     5     8    1
    10     9    11    1
    11     9    10    1
    12    11    12    1
    13    11    13    1
    14    11    14    1
    15    15    19    1
    16    15    16    1
    17    15    17    1
    18    15    18    1
    19    19    24    2
    20    19    20    1
    21    20    21    1
    22    20    22    1
    23    20    23    1
    24    24    26    1
    25    24    25    1
    26    26    27    1
    27    26    28    1
@<TRIPOS>MOLECULE
/home/jramos/Programacion/GITHUB_REPO_DIR/gecos2/data/IsoP.pdb
 28 27 0 0 0
SMALL
GASTEIGER

@<TRIPOS>ATOM
      1  C1         2.0880    1.2530   -8.9850 C.3     1  T_I1       -0.0286
      2  HC1        1.7950    0.2510   -9.2200 H       1  T_I1        0.0313
      3  HC3        1.9360    1.8780   -9.8400 H       1  T_I1        0.0313
      4  C1         3.5670    1.2740   -8.5940 C.2     1  T_I1       -0.0765
      5  C4         4.4193    2.5272   -8.8698 C.3     1  T_I1       -0.0438
      6  H41        5.4453    2.2290   -9.0843 H       1  T_I1        0.0274
      7  H42        4.0095    3.0641   -9.7256 H       1  T_I1        0.0274
      8  H43        4.4050    3.1766   -7.9939 H       1  T_I1        0.0274
      9  C2         4.1216    0.2025   -8.0104 C.2     1  T_I1       -0.0881
     10  H2         3.5292   -0.6679   -7.8191 H       1  T_I1        0.0569
     11  C3         5.5997    0.2241   -7.6186 C.3     1  T_I1       -0.0466
     12  H31        6.0270    1.1682   -7.8857 H       1  T_I1        0.0272
     13  H32        5.6918    0.0769   -6.5629 H       1  T_I1        0.0272
     14  H33        6.1172   -0.5585   -8.1343 H       1  T_I1        0.0272
     15  C         -2.6489    2.1501   -7.7238 C.3     1  T_I1       -0.0440
     16  HC1       -2.7489    1.7800   -8.7229 H       1  T_I1        0.0274
     17  HC2       -3.1889    1.5148   -7.0517 H       1  T_I1        0.0274
     18  HC3       -3.0452    3.1431   -7.6699 H       1  T_I1        0.0274
     19  C1        -1.1700    2.1684   -7.3316 C.2     1  T_I1       -0.0796
     20  C4        -0.7502    2.6613   -5.9343 C.3     1  T_I1       -0.0440
     21  H41        0.2261    3.1443   -5.9969 H       1  T_I1        0.0274
     22  H42       -1.4851    3.3771   -5.5650 H       1  T_I1        0.0274
     23  H43       -0.6929    1.8143   -5.2516 H       1  T_I1        0.0274
     24  C2        -0.2408    1.7549   -8.2037 C.2     1  T_I1       -0.0850
     25  H2        -0.5326    1.4127   -9.1743 H       1  T_I1        0.0572
     26  C3         1.2380    1.7740   -7.8120 C.3     1  T_I1       -0.0308
     27  H31        1.5320    2.7755   -7.5761 H       1  T_I1        0.0310
     28  H32        1.3889    1.1482   -6.9574 H       1  T_I1        0.0310
@<TRIPOS>BOND
     1     1     4    1
     2     1     2    1
     3     1     3    1
     4     1    26    1
     5     4     9    2
     6     4     5    1
     7     5     6    1
     8     5     7    1
     9     5     8    1
    10     9    11    1
    11     9    10    1
    12    11    12    1
    13    11    13    1
    14    11    14    1
    15    15    19    1
    16    15    16    1
    17    15    17    1
    18    15    18    1
    19    19    24    2
    20    19    20    1
    21    20    21    1
    22    20    22    1
    23    20    23    1
    24    24    26    1
    25    24    25    1
    26    26    27    1
    27    26    28    1
@<TRIPOS>MOLECULE
/home/jramos/Programacion/GITHUB_REPO_DIR/gecos2/data/IsoP.pdb
 28 27 0 0 0
SMALL
GASTEIGER

@<TRIPOS>ATOM
      1  C1         2.0880    1.2530   -8.9850 C.3     1  T_I1       -0.0286
      2  HC1        1.7950    0.2510   -9.2200 H       1  T_I1        0.0313
      3  HC3        1.9360    1.8780   -9.8400 H       1  T_I1        0.0313
      4  C1         3.5670    1.2740   -8.5940 C.2     1  T_I1       -0.0765
      5  C4         4.2046    0.0419   -7.9243 C.3     1  T_I1       -0.0438
      6  H41        4.9823    0.3658   -7.2330 H       1  T_I1        0.0274
      7  H42        3.4399   -0.5116   -7.3790 H       1  T_I1        0.0274
      8  H43        4.6422   -0.6015   -8.6883 H       1  T_I1        0.0274
      9  C2         4.3089    2.3639   -8.8348 C.2     1  T_I1       -0.0881
     10  H2         3.8655    3.2197   -9.2999 H       1  T_I1        0.0569
     11  C3         5.7875    2.3843   -8.4450 C.3     1  T_I1       -0.0466
     12  H31        6.0519    1.4501   -7.9951 H       1  T_I1        0.0272
     13  H32        6.3853    2.5412   -9.3184 H       1  T_I1        0.0272
     14  H33        5.9617    3.1767   -7.7464 H       1  T_I1        0.0272
     15  C         -2.2720    2.8079   -9.1790 C.3     1  T_I1       -0.0440
     16  HC1       -2.6994    1.8634   -8.9139 H       1  T_I1        0.0274
     17  HC2       -2.7889    3.5913   -8.6633 H       1  T_I1        0.0274
     18  HC3       -2.3633    2.9570  -10.2352 H       1  T_I1        0.0274
     19  C1        -0.7931    2.8275   -8.7864 C.2     1  T_I1       -0.0796
     20  C4         0.0596    4.0802   -9.0606 C.3     1  T_I1       -0.0440
     21  H41        1.0865    3.7814   -9.2762 H       1  T_I1        0.0274
     22  H42       -0.3483    4.6177   -9.9170 H       1  T_I1        0.0274
     23  H43        0.0465    4.7282   -8.1849 H       1  T_I1        0.0274
     24  C2        -0.2408    1.7549   -8.2037 C.2     1  T_I1       -0.0850
     25  H2        -0.8333    0.8848   -8.0135 H       1  T_I1        0.0572
     26  C3         1.2380    1.7740   -7.8120 C.3     1  T_I1       -0.0308
     27  H31        1.5320    2.7755   -7.5761 H       1  T_I1        0.0310
     28  H32        1.3889    1.1482   -6.9574 H       1  T_I1        0.0310
@<TRIPOS>BOND
     1     1     4    1
     2     1     2    1
     3     1     3    1
     4     1    26    1
     5     4     9    2
     6     4     5    1
     7     5     6    1
     8     5     7    1
     9     5     8    1
    10     9    11    1
    11     9    10    1
    12    11    12    1
    13    11    13    1
    14    11    14    1
    15    15    19    1
    16    15    16    1
    17    15    17    1
    18    15    18    1
    19    19    24    2
    20    19    20    1
    21    20    21    1
    22    20    22    1
    23    20    23    1
    24    24    26    1
    25    24    25    1
    26    26    27    1
    27    26    28    1
@<TRIPOS>MOLECULE
/home/jramos/Programacion/GITHUB_REPO_DIR/gecos2/data/IsoP.pdb
 28 27 0 0 0
SMALL
GASTEIGER

@<TRIPOS>ATOM
      1  C1         2.0880    1.2530   -8.9850 C.3     1  T_I1       -0.0286
      2  HC1        1.7950    0.2510   -9.2200 H       1  T_I1        0.0313
      3  HC3        1.9360    1.8780   -9.8400 H       1  T_I1        0.0313
      4  C1         3.5670    1.2740   -8.5940 C.2     1  T_I1       -0.0765
      5  C4         4.2429    2.6029   -8.2065 C.3     1  T_I1       -0.0438
      6  H41        5.2889    2.5811   -8.5116 H       1  T_I1        0.0274
      7  H42        3.7348    3.4281   -8.7063 H       1  T_I1        0.0274
      8  H43        4.1819    2.7406   -7.1265 H       1  T_I1        0.0274
      9  C2         4.2751    0.1361   -8.5874 C.2     1  T_I1       -0.0881
     10  H2         3.8052   -0.7869   -8.8567 H       1  T_I1        0.0569
     11  C3         5.7531    0.1571   -8.1954 C.3     1  T_I1       -0.0466
     12  H31        6.0470    1.1590   -7.9611 H       1  T_I1        0.0272
     13  H32        5.9052   -0.4682   -7.3406 H       1  T_I1        0.0272
     14  H33        6.3441   -0.2046   -9.0115 H       1  T_I1        0.0272
     15  C          1.0205    0.2514   -4.2215 C.3     1  T_I1       -0.0440
     16  HC1        1.7105   -0.5292   -4.4658 H       1  T_I1        0.0274
     17  HC2        1.4137    0.8363   -3.4151 H       1  T_I1        0.0274
     18  HC3        0.0856   -0.1783   -3.9259 H       1  T_I1        0.0274
     19  C1         0.8076    1.1461   -5.4445 C.2     1  T_I1       -0.0796
     20  C4        -0.1460    2.3523   -5.3592 C.3     1  T_I1       -0.0440
     21  H41       -0.6206    2.5102   -6.3288 H       1  T_I1        0.0274
     22  H42       -0.9124    2.1579   -4.6085 H       1  T_I1        0.0274
     23  H43        0.4172    3.2426   -5.0816 H       1  T_I1        0.0274
     24  C2         1.4515    0.8801   -6.5888 C.2     1  T_I1       -0.0850
     25  H2         2.1137    0.0421   -6.6479 H       1  T_I1        0.0572
     26  C3         1.2380    1.7740   -7.8120 C.3     1  T_I1       -0.0308
     27  H31        0.2041    1.7610   -8.0877 H       1  T_I1        0.0310
     28  H32        1.5311    2.7759   -7.5773 H       1  T_I1        0.0310
@<TRIPOS>BOND
     1     1     4    1
     2     1     2    1
     3     1     3    1
     4     1    26    1
     5     4     9    2
     6     4     5    1
     7     5     6    1
     8     5     7    1
     9     5     8    1
    10     9    11    1
    11     9    10    1
    12    11    12    1
    13    11    13    1
    14    11    14    1
    15    15    19    1
    16    15    16    1
    17    15    17    1
    18    15    18    1
    19    19    24    2
    20    19    20    1
    21    20    21    1
    22    20    22    1
    23    20    23    1
    24    24    26    1
    25    24    25    1
    26    26    27    1
    27    26    28    1
@<TRIPOS>MOLECULE
/home/jramos/Programacion/GITHUB_REPO_DIR/gecos2/data/IsoP.pdb
 28 27 0 0 0
SMALL
GASTEIGER

@<TRIPOS>ATOM
      1  C1         2.0880    1.2530   -8.9850 C.3     1  T_I1       -0.0286
      2  HC1        1.7950    0.2510   -9.2200 H       1  T_I1        0.0313
      3  HC3        1.9360    1.8780   -9.8400 H       1  T_I1        0.0313
      4  C1         3.5670    1.2740   -8.5940 C.2     1  T_I1       -0.0765
      5  C4         4.0570    0.4506   -7.3878 C.3     1  T_I1       -0.0438
      6  H41        4.8880    0.9676   -6.9083 H       1  T_I1        0.0274
      7  H42        3.2415    0.3315   -6.6740 H       1  T_I1        0.0274
      8  H43        4.3873   -0.5314   -7.7279 H       1  T_I1        0.0274
      9  C2         4.4373    2.0080   -9.3013 C.2     1  T_I1       -0.0881
     10  H2         4.0964    2.5799  -10.1391 H       1  T_I1        0.0569
     11  C3         5.9157    2.0279   -8.9111 C.3     1  T_I1       -0.0466
     12  H31        6.0686    1.4031   -8.0558 H       1  T_I1        0.0272
     13  H32        6.5057    1.6659   -9.7269 H       1  T_I1        0.0272
     14  H33        6.2094    3.0301   -8.6757 H       1  T_I1        0.0272
     15  C          1.4652    5.2969   -6.1402 C.3     1  T_I1       -0.0440
     16  HC1        2.2523    5.6037   -6.7971 H       1  T_I1        0.0274
     17  HC2        0.6260    5.9517   -6.2580 H       1  T_I1        0.0274
     18  HC3        1.8092    5.3387   -5.1273 H       1  T_I1        0.0274
     19  C1         1.0465    3.8646   -6.4788 C.2     1  T_I1       -0.0796
     20  C4        -0.0757    3.1805   -5.6761 C.3     1  T_I1       -0.0440
     21  H41        0.1239    2.1098   -5.6115 H       1  T_I1        0.0274
     22  H42       -0.1139    3.6028   -4.6716 H       1  T_I1        0.0274
     23  H43       -1.0306    3.3422   -6.1749 H       1  T_I1        0.0274
     24  C2         1.6559    3.2064   -7.4740 C.2     1  T_I1       -0.0850
     25  H2         2.4355    3.6817   -8.0313 H       1  T_I1        0.0572
     26  C3         1.2380    1.7740   -7.8120 C.3     1  T_I1       -0.0308
     27  H31        1.3876    1.1474   -6.9576 H       1  T_I1        0.0310
     28  H32        0.2042    1.7594   -8.0874 H       1  T_I1        0.0310
@<TRIPOS>BOND
     1     1     4    1
     2     1     2    1
     3     1     3    1
     4     1    26    1
     5     4     9    2
     6     4     5    1
     7     5     6    1
     8     5     7    1
     9     5     8    1
    10     9    11    1
    11     9    10    1
    12    11    12    1
    13    11    13    1
    14    11    14    1
    15    15    19    1
    16    15    16    1
    17    15    17    1
    18    15    18    1
    19    19    24    2
    20    19    20    1
    21    20    21    1
    22    20    22    1
    23    20    23    1
    24    24    26    1
    25    24    25    1
    26    26    27    1
    27    26    28    1
@<TRIPOS>MOLECULE
/home/jramos/Programacion/GITHUB_REPO_DIR/gecos2/data/IsoP.pdb
 28 27 0 0 0
SMALL
GASTEIGER

@<TRIPOS>ATOM
      1  C1         2.0880    1.2530   -8.9850 C.3     1  T_I1       -0.0286
      2  HC1        1.7950    0.2510   -9.2200 H       1  T_I1        0.0313
      3  HC3        1.9360    1.8780   -9.8400 H       1  T_I1        0.0313
      4  C1         3.5670    1.2740   -8.5940 C.2     1  T_I1       -0.0765
      5  C4         4.2429    2.6029   -8.2065 C.3     1  T_I1       -0.0438
      6  H41        5.2889    2.5811   -8.5116 H       1  T_I1        0.0274
      7  H42        3.7348    3.4281   -8.7063 H       1  T_I1        0.0274
      8  H43        4.1819    2.7406   -7.1265 H       1  T_I1        0.0274
      9  C2         4.2751    0.1361   -8.5874 C.2     1  T_I1       -0.0881
     10  H2         3.8052   -0.7869   -8.8567 H       1  T_I1        0.0569
     11  C3         5.7531    0.1571   -8.1954 C.3     1  T_I1       -0.0466
     12  H31        6.0470    1.1590   -7.9611 H       1  T_I1        0.0272
     13  H32        5.9052   -0.4682   -7.3406 H       1  T_I1        0.0272
     14  H33        6.3441   -0.2046   -9.0115 H       1  T_I1        0.0272
     15  C         -2.4624    0.6470   -8.3549 C.3     1  T_I1       -0.0440
     16  HC1       -2.7252    1.5826   -8.8028 H       1  T_I1        0.0274
     17  HC2       -2.6372   -0.1454   -9.0538 H       1  T_I1        0.0274
     18  HC3       -3.0609    0.4890   -7.4815 H       1  T_I1        0.0274
     19  C1        -0.9831    0.6656   -7.9639 C.2     1  T_I1       -0.0796
     20  C4        -0.3479   -0.5679   -7.2956 C.3     1  T_I1       -0.0440
     21  H41        0.4301   -0.2458   -6.6019 H       1  T_I1        0.0274
     22  H42       -1.1131   -1.1206   -6.7500 H       1  T_I1        0.0274
     23  H43        0.0898   -1.2104   -8.0588 H       1  T_I1        0.0274
     24  C2        -0.2408    1.7549   -8.2037 C.2     1  T_I1       -0.0850
     25  H2        -0.6823    2.6117   -8.6678 H       1  T_I1        0.0572
     26  C3         1.2380    1.7740   -7.8120 C.3     1  T_I1       -0.0308
     27  H31        1.5320    2.7755   -7.5761 H       1  T_I1        0.0310
     28  H32        1.3889    1.1482   -6.9574 H       1  T_I1        0.0310
@<TRIPOS>BOND
     1     1     4    1
     2     1     2    1
     3     1     3    1
     4     1    26    1
     5     4     9    2
     6     4     5    1
     7     5     6    1
     8     5     7    1
     9     5     8    1
    10     9    11    1
    11     9    10    1
    12    11    12    1
    13    11    13    1
    14    11    14    1
    15    15    19    1
    16    15    16    1
    17    15    17    1
    18    15    18    1
    19    19    24    2
    20    19    20    1
    21    20    21    1
    22    20    22    1
    23    20    23    1
    24    24    26    1
    25    24    25    1
    26    26    27    1
    27    26    28    1
@<TRIPOS>MOLECULE
/home/jramos/Programacion/GITHUB_REPO_DIR/gecos2/data/IsoP.pdb
 28 27 0 0 0
SMALL
GASTEIGER

@<TRIPOS>ATOM
      1  C1         2.0880    1.2530   -8.9850 C.3     1  T_I1       -0.0286
      2  HC1        1.7950    0.2510   -9.2200 H       1  T_I1        0.0313
      3  HC3        1.9360    1.8780   -9.8400 H       1  T_I1        0.0313
      4  C1         3.5670    1.2740   -8.5940 C.2     1  T_I1       -0.0765
      5  C4         4.5669    2.1185   -9.4063 C.3     1  T_I1       -0.0438
      6  H41        5.5397    1.6272   -9.4089 H       1  T_I1        0.0274
      7  H42        4.2078    2.2210  -10.4306 H       1  T_I1        0.0274
      8  H43        4.6599    3.1065   -8.9543 H       1  T_I1        0.0274
      9  C2         3.9932    0.5584   -7.5439 C.2     1  T_I1       -0.0881
     10  H2         3.2983   -0.0282   -6.9800 H       1  T_I1        0.0569
     11  C3         5.4714    0.5805   -7.1525 C.3     1  T_I1       -0.0466
     12  H31        6.0102    1.2151   -7.8250 H       1  T_I1        0.0272
     13  H32        5.5714    0.9523   -6.1543 H       1  T_I1        0.0272
     14  H33        5.8695   -0.4119   -7.2051 H       1  T_I1        0.0272
     15  C         -2.2720    2.8079   -9.1790 C.3     1  T_I1       -0.0440
     16  HC1       -2.6994    1.8634   -8.9139 H       1  T_I1        0.0274
     17  HC2       -2.7889    3.5913   -8.6633 H       1  T_I1        0.0274
     18  HC3       -2.3633    2.9570  -10.2352 H       1  T_I1        0.0274
     19  C1        -0.7931    2.8275   -8.7864 C.2     1  T_I1       -0.0796
     20  C4         0.0596    4.0802   -9.0606 C.3     1  T_I1       -0.0440
     21  H41        1.0865    3.7814   -9.2762 H       1  T_I1        0.0274
     22  H42       -0.3483    4.6177   -9.9170 H       1  T_I1        0.0274
     23  H43        0.0465    4.7282   -8.1849 H       1  T_I1        0.0274
     24  C2        -0.2408    1.7549   -8.2037 C.2     1  T_I1       -0.0850
     25  H2        -0.8333    0.8848   -8.0135 H       1  T_I1        0.0572
     26  C3         1.2380    1.7740   -7.8120 C.3     1  T_I1       -0.0308
     27  H31        1.5320    2.7755   -7.5761 H       1  T_I1        0.0310
     28  H32        1.3889    1.1482   -6.9574 H       1  T_I1        0.0310
@<TRIPOS>BOND
     1     1     4    1
     2     1     2    1
     3     1     3    1
     4     1    26    1
     5     4     9    2
     6     4     5    1
     7     5     6    1
     8     5     7    1
     9     5     8    1
    10     9    11    1
    11     9    10    1
    12    11    12    1
    13    11    13    1
    14    11    14    1
    15    15    19    1
    16    15    16    1
    17    15    17    1
    18    15    18    1
    19    19    24    2
    20    19    20    1
    21    20    21    1
    22    20    22    1
    23    20    23    1
    24    24    26    1
    25    24    25    1
    26    26    27    1
    27    26    28    1
@<TRIPOS>MOLECULE
/home/jramos/Programacion/GITHUB_REPO_DIR/gecos2/data/IsoP.pdb
 28 27 0 0 0
SMALL
GASTEIGER

@<TRIPOS>ATOM
      1  C1         2.0880    1.2530   -8.9850 C.3     1  T_I1       -0.0286
      2  HC1        1.7950    0.2510   -9.2200 H       1  T_I1        0.0313
      3  HC3        1.9360    1.8780   -9.8400 H       1  T_I1        0.0313
      4  C1         3.5670    1.2740   -8.5940 C.2     1  T_I1       -0.0765
      5  C4         4.4193    2.5272   -8.8698 C.3     1  T_I1       -0.0438
      6  H41        5.4453    2.2290   -9.0843 H       1  T_I1        0.0274
      7  H42        4.0095    3.0641   -9.7256 H       1  T_I1        0.0274
      8  H43        4.4050    3.1766   -7.9939 H       1  T_I1        0.0274
      9  C2         4.1216    0.2025   -8.0104 C.2     1  T_I1       -0.0881
     10  H2         3.5292   -0.6679   -7.8191 H       1  T_I1        0.0569
     11  C3         5.5997    0.2241   -7.6186 C.3     1  T_I1       -0.0466
     12  H31        6.0270    1.1682   -7.8857 H       1  T_I1        0.0272
     13  H32        5.6918    0.0769   -6.5629 H       1  T_I1        0.0272
     14  H33        6.1172   -0.5585   -8.1343 H       1  T_I1        0.0272
     15  C          0.8779   -1.0801   -5.1697 C.3     1  T_I1       -0.0440
     16  HC1        1.6945   -0.7031   -4.5900 H       1  T_I1        0.0274
     17  HC2       -0.0109   -1.0873   -4.5723 H       1  T_I1        0.0274
     18  HC3        1.0985   -2.0773   -5.4906 H       1  T_I1        0.0274
     19  C1         0.6636   -0.1856   -6.3926 C.2     1  T_I1       -0.0796
     20  C4        -0.4579   -0.5102   -7.3968 C.3     1  T_I1       -0.0440
     21  H41       -0.1479   -0.2088   -8.3984 H       1  T_I1        0.0274
     22  H42       -0.6564   -1.5822   -7.3865 H       1  T_I1        0.0274
     23  H43       -1.3625    0.0296   -7.1191 H       1  T_I1        0.0274
     24  C2         1.4515    0.8801   -6.5888 C.2     1  T_I1       -0.0850
     25  H2         2.2306    1.1053   -5.8913 H       1  T_I1        0.0572
     26  C3         1.2380    1.7740   -7.8120 C.3     1  T_I1       -0.0308
     27  H31        0.2041    1.7610   -8.0877 H       1  T_I1        0.0310
     28  H32        1.5311    2.7759   -7.5773 H       1  T_I1        0.0310
@<TRIPOS>BOND
     1     1     4    1
     2     1     2    1
     3     1     3    1
     4     1    26    1
     5     4     9    2
     6     4     5    1
     7     5     6    1
     8     5     7    1
     9     5     8    1
    10     9    11    1
    11     9    10    1
    12    11    12    1
    13    11    13    1
    14    11    14    1
    15    15    19    1
    16    15    16    1
    17    15    17    1
    18    15    18    1
    19    19    24    2
    20    19    20    1
    21    20    21    1
    22    20    22    1
    23    20    23    1
    24    24    26    1
    25    24    25    1
    26    26    27    1
    27    26    28    1
@<TRIPOS>MOLECULE
/home/jramos/Programacion/GITHUB_REPO_DIR/gecos2/data/IsoP.pdb
 28 27 0 0 0
SMALL
GASTEIGER

@<TRIPOS>ATOM
      1  C1         2.0880    1.2530   -8.9850 C.3     1  T_I1       -0.0286
      2  HC1        1.7950    0.2510   -9.2200 H       1  T_I1        0.0313
      3  HC3        1.9360    1.8780   -9.8400 H       1  T_I1        0.0313
      4  C1         3.5670    1.2740   -8.5940 C.2     1  T_I1       -0.0765
      5  C4         4.2046    0.0419   -7.9243 C.3     1  T_I1       -0.0438
      6  H41        4.9823    0.3658   -7.2330 H       1  T_I1        0.0274
      7  H42        3.4399   -0.5116   -7.3790 H       1  T_I1        0.0274
      8  H43        4.6422   -0.6015   -8.6883 H       1  T_I1        0.0274
      9  C2         4.3089    2.3639   -8.8348 C.2     1  T_I1       -0.0881
     10  H2         3.8655    3.2197   -9.2999 H       1  T_I1        0.0569
     11  C3         5.7875    2.3843   -8.4450 C.3     1  T_I1       -0.0466
     12  H31        6.0519    1.4501   -7.9951 H       1  T_I1        0.0272
     13  H32        6.3853    2.5412   -9.3184 H       1  T_I1        0.0272
     14  H33        5.9617    3.1767   -7.7464 H       1  T_I1        0.0272
     15  C          0.8779   -1.0801   -5.1697 C.3     1  T_I1       -0.0440
     16  HC1        1.6945   -0.7031   -4.5900 H       1  T_I1        0.0274
     17  HC2       -0.0109   -1.0873   -4.5723 H       1  T_I1        0.0274
     18  HC3        1.0985   -2.0773   -5.4906 H       1  T_I1        0.0274
     19  C1         0.6636   -0.1856   -6.3926 C.2     1  T_I1       -0.0796
     20  C4        -0.4579   -0.5102   -7.3968 C.3     1  T_I1       -0.0440
     21  H41       -0.1479   -0.2088   -8.3984 H       1  T_I1        0.0274
     22  H42       -0.6564   -1.5822   -7.3865 H       1  T_I1        0.0274
     23  H43       -1.3625    0.0296   -7.1191 H       1  T_I1        0.0274
     24  C2         1.4515    0.8801   -6.5888 C.2     1  T_I1       -0.0850
     25  H2         2.2306    1.1053   -5.8913 H       1  T_I1        0.0572
     26  C3         1.2380    1.7740   -7.8120 C.3     1  T_I1       -0.0308
     27  H31        0.2041    1.7610   -8.0877 H       1  T_I1        0.0310
     28  H32        1.5311    2.7759   -7.5773 H       1  T_I1        0.0310
@<TRIPOS>BOND
     1     1     4    1
     2     1     2    1
     3     1     3    1
     4     1    26    1
     5     4     9    2
     6     4     5    1
     7     5     6    1
     8     5     7    1
     9     5     8    1
    10     9    11    1
    11     9    10    1
    12    11    12    1
    13    11    13    1
    14    11    14    1
    15    15    19    1
    16    15    16    1
    17    15    17    1
    18    15    18    1
    19    19    24    2
    20    19    20    1
    21    20    21    1
    22    20    22    1
    23    20    23    1
    24    24    26    1
    25    24    25    1
    26    26    27    1
    27    26    28    1
@<TRIPOS>MOLECULE
/home/jramos/Programacion/GITHUB_REPO_DIR/gecos2/data/IsoP.pdb
 28 27 0 0 0
SMALL
GASTEIGER

@<TRIPOS>ATOM
      1  C1         2.0880    1.2530   -8.9850 C.3     1  T_I1       -0.0286
      2  HC1        1.7950    0.2510   -9.2200 H       1  T_I1        0.0313
      3  HC3        1.9360    1.8780   -9.8400 H       1  T_I1        0.0313
      4  C1         3.5670    1.2740   -8.5940 C.2     1  T_I1       -0.0765
      5  C4         4.0570    0.4506   -7.3878 C.3     1  T_I1       -0.0438
      6  H41        4.8880    0.9676   -6.9083 H       1  T_I1        0.0274
      7  H42        3.2415    0.3315   -6.6740 H       1  T_I1        0.0274
      8  H43        4.3873   -0.5314   -7.7279 H       1  T_I1        0.0274
      9  C2         4.4373    2.0080   -9.3013 C.2     1  T_I1       -0.0881
     10  H2         4.0964    2.5799  -10.1391 H       1  T_I1        0.0569
     11  C3         5.9157    2.0279   -8.9111 C.3     1  T_I1       -0.0466
     12  H31        6.0686    1.4031   -8.0558 H       1  T_I1        0.0272
     13  H32        6.5057    1.6659   -9.7269 H       1  T_I1        0.0272
     14  H33        6.2094    3.0301   -8.6757 H       1  T_I1        0.0272
     15  C         -2.5636    2.6337   -8.0696 C.3     1  T_I1       -0.0440
     16  HC1       -2.7376    1.8425   -8.7688 H       1  T_I1        0.0274
     17  HC2       -3.1631    2.4769   -7.1962 H       1  T_I1        0.0274
     18  HC3       -2.8262    3.5699   -8.5175 H       1  T_I1        0.0274
     19  C1        -1.0847    2.6523   -7.6770 C.2     1  T_I1       -0.0796
     20  C4        -0.5671    3.7021   -6.6761 C.3     1  T_I1       -0.0440
     21  H41        0.4615    3.9667   -6.9257 H       1  T_I1        0.0274
     22  H42       -1.1928    4.5935   -6.7276 H       1  T_I1        0.0274
     23  H43       -0.6017    3.2915   -5.6676 H       1  T_I1        0.0274
     24  C2        -0.2408    1.7549   -8.2037 C.2     1  T_I1       -0.0850
     25  H2        -0.6005    1.0259   -8.8990 H       1  T_I1        0.0572
     26  C3         1.2380    1.7740   -7.8120 C.3     1  T_I1       -0.0308
     27  H31        1.5320    2.7755   -7.5761 H       1  T_I1        0.0310
     28  H32        1.3889    1.1482   -6.9574 H       1  T_I1        0.0310
@<TRIPOS>BOND
     1     1     4    1
     2     1     2    1
     3     1     3    1
     4     1    26    1
     5     4     9    2
     6     4     5    1
     7     5     6    1
     8     5     7    1
     9     5     8    1
    10     9    11    1
    11     9    10    1
    12    11    12    1
    13    11    13    1
    14    11    14    1
    15    15    19    1
    16    15    16    1
    17    15    17    1
    18    15    18    1
    19    19    24    2
    20    19    20    1
    21    20    21    1
    22    20    22    1
    23    20    23    1
    24    24    26    1
    25    24    25    1
    26    26    27    1
    27    26    28    1
@<TRIPOS>MOLECULE
/home/jramos/Programacion/GITHUB_REPO_DIR/gecos2/data/IsoP.pdb
 28 27 0 0 0
SMALL
GASTEIGER

@<TRIPOS>ATOM
      1  C1         2.0880    1.2530   -8.9850 C.3     1  T_I1       -0.0286
      2  HC1        1.7950    0.2510   -9.2200 H       1  T_I1        0.0313
      3  HC3        1.9360    1.8780   -9.8400 H       1  T_I1        0.0313
      4  C1         3.5670    1.2740   -8.5940 C.2     1  T_I1       -0.0765
      5  C4         4.0570    0.4506   -7.3878 C.3     1  T_I1       -0.0438
      6  H41        4.8880    0.9676   -6.9083 H       1  T_I1        0.0274
      7  H42        3.2415    0.3315   -6.6740 H       1  T_I1        0.0274
      8  H43        4.3873   -0.5314   -7.7279 H       1  T_I1        0.0274
      9  C2         4.4373    2.0080   -9.3013 C.2     1  T_I1       -0.0881
     10  H2         4.0964    2.5799  -10.1391 H       1  T_I1        0.0569
     11  C3         5.9157    2.0279   -8.9111 C.3     1  T_I1       -0.0466
     12  H31        6.0686    1.4031   -8.0558 H       1  T_I1        0.0272
     13  H32        6.5057    1.6659   -9.7269 H       1  T_I1        0.0272
     14  H33        6.2094    3.0301   -8.6757 H       1  T_I1        0.0272
     15  C         -2.5905    1.0031   -7.8885 C.3     1  T_I1       -0.0440
     16  HC1       -2.7418    1.6299   -8.7425 H       1  T_I1        0.0274
     17  HC2       -2.8853    0.0009   -8.1242 H       1  T_I1        0.0274
     18  HC3       -3.1807    1.3644   -7.0717 H       1  T_I1        0.0274
     19  C1        -1.1113    1.0214   -7.4972 C.2     1  T_I1       -0.0796
     20  C4        -0.6236    0.1961   -6.2919 C.3     1  T_I1       -0.0440
     21  H41        0.2080    0.7123   -5.8100 H       1  T_I1        0.0274
     22  H42       -1.4390    0.0781   -5.5779 H       1  T_I1        0.0274
     23  H43       -0.2936   -0.7849   -6.6321 H       1  T_I1        0.0274
     24  C2        -0.2408    1.7549   -8.2037 C.2     1  T_I1       -0.0850
     25  H2        -0.5798    2.3282   -9.0408 H       1  T_I1        0.0572
     26  C3         1.2380    1.7740   -7.8120 C.3     1  T_I1       -0.0308
     27  H31        1.5320    2.7755   -7.5761 H       1  T_I1        0.0310
     28  H32        1.3889    1.1482   -6.9574 H       1  T_I1        0.0310
@<TRIPOS>BOND
     1     1     4    1
     2     1     2    1
     3     1     3    1
     4     1    26    1
     5     4     9    2
     6     4     5    1
     7     5     6    1
     8     5     7    1
     9     5     8    1
    10     9    11    1
    11     9    10    1
    12    11    12    1
    13    11    13    1
    14    11    14    1
    15    15    19    1
    16    15    16    1
    17    15    17    1
    18    15    18    1
    19    19    24    2
    20    19    20    1
    21    20    21    1
    22    20    22    1
    23    20    23    1
    24    24    26    1
    25    24    25    1
    26    26    27    1
    27    26    28    1
@<TRIPOS>MOLECULE
/home/jramos/Programacion/GITHUB_REPO_DIR/gecos2/data/IsoP.pdb
 28 27 0 0 0
SMALL
GASTEIGER

@<TRIPOS>ATOM
      1  C1         2.0880    1.2530   -8.9850 C.3     1  T_I1       -0.0286
      2  HC1        1.7950    0.2510   -9.2200 H       1  T_I1        0.0313
      3  HC3        1.9360    1.8780   -9.8400 H       1  T_I1        0.0313
      4  C1         3.5670    1.2740   -8.5940 C.2     1  T_I1       -0.0765
      5  C4         4.0850    2.3254   -7.5944 C.3     1  T_I1       -0.0438
      6  H41        5.1124    2.5893   -7.8443 H       1  T_I1        0.0274
      7  H42        3.4574    3.2155   -7.6456 H       1  T_I1        0.0274
      8  H43        4.0503    1.9151   -6.5846 H       1  T_I1        0.0274
      9  C2         4.4125    0.3770   -9.1202 C.2     1  T_I1       -0.0881
     10  H2         4.0523   -0.3531   -9.8147 H       1  T_I1        0.0569
     11  C3         5.8906    0.3974   -8.7284 C.3     1  T_I1       -0.0466
     12  H31        6.0650    1.1901   -8.0309 H       1  T_I1        0.0272
     13  H32        6.1543   -0.5372   -8.2791 H       1  T_I1        0.0272
     14  H33        6.4894    0.5549   -9.6018 H       1  T_I1        0.0272
     15  C          1.5597    0.5009   -4.1332 C.3     1  T_I1       -0.0440
     16  HC1        1.7804   -0.4959   -4.4537 H       1  T_I1        0.0274
     17  HC2        2.3763    0.8785   -3.5523 H       1  T_I1        0.0274
     18  HC3        0.6713    0.4952   -3.5360 H       1  T_I1        0.0274
     19  C1         1.3471    1.3953   -5.3565 C.2     1  T_I1       -0.0796
     20  C4         1.0139    2.8873   -5.1707 C.3     1  T_I1       -0.0440
     21  H41        0.3653    3.2192   -5.9827 H       1  T_I1        0.0274
     22  H42        0.5031    3.0301   -4.2181 H       1  T_I1        0.0274
     23  H43        1.9345    3.4697   -5.1805 H       1  T_I1        0.0274
     24  C2         1.4515    0.8801   -6.5888 C.2     1  T_I1       -0.0850
     25  H2         1.6828   -0.1563   -6.7177 H       1  T_I1        0.0572
     26  C3         1.2380    1.7740   -7.8120 C.3     1  T_I1       -0.0308
     27  H31        0.2041    1.7610   -8.0877 H       1  T_I1        0.0310
     28  H32        1.5311    2.7759   -7.5773 H       1  T_I1        0.0310
@<TRIPOS>BOND
     1     1     4    1
     2     1     2    1
     3     1     3    1
     4     1    26    1
     5     4     9    2
     6     4     5    1
     7     5     6    1
     8     5     7    1
     9     5     8    1
    10     9    11    1
    11     9    10    1
    12    11    12    1
    13    11    13    1
    14    11    14    1
    15    15    19    1
    16    15    16    1
    17    15    17    1
    18    15    18    1
    19    19    24    2
    20    19    20    1
    21    20    21    1
    22    20    22    1
    23    20    23    1
    24    24    26    1
    25    24    25    1
    26    26    27    1
    27    26    28    1
@<TRIPOS>MOLECULE
/home/jramos/Programacion/GITHUB_REPO_DIR/gecos2/data/IsoP.pdb
 28 27 0 0 0
SMALL
GASTEIGER

@<TRIPOS>ATOM
      1  C1         2.0880    1.2530   -8.9850 C.3     1  T_I1       -0.0286
      2  HC1        1.7950    0.2510   -9.2200 H       1  T_I1        0.0313
      3  HC3        1.9360    1.8780   -9.8400 H       1  T_I1        0.0313
      4  C1         3.5670    1.2740   -8.5940 C.2     1  T_I1       -0.0765
      5  C4         4.0570    0.4506   -7.3878 C.3     1  T_I1       -0.0438
      6  H41        4.8880    0.9676   -6.9083 H       1  T_I1        0.0274
      7  H42        3.2415    0.3315   -6.6740 H       1  T_I1        0.0274
      8  H43        4.3873   -0.5314   -7.7279 H       1  T_I1        0.0274
      9  C2         4.4373    2.0080   -9.3013 C.2     1  T_I1       -0.0881
     10  H2         4.0964    2.5799  -10.1391 H       1  T_I1        0.0569
     11  C3         5.9157    2.0279   -8.9111 C.3     1  T_I1       -0.0466
     12  H31        6.0686    1.4031   -8.0558 H       1  T_I1        0.0272
     13  H32        6.5057    1.6659   -9.7269 H       1  T_I1        0.0272
     14  H33        6.2094    3.0301   -8.6757 H       1  T_I1        0.0272
     15  C          1.4699    5.6725   -7.7375 C.3     1  T_I1       -0.0440
     16  HC1        2.2502    5.6535   -7.0055 H       1  T_I1        0.0274
     17  HC2        1.8225    6.1607   -8.6231 H       1  T_I1        0.0274
     18  HC3        0.6283    6.2073   -7.3480 H       1  T_I1        0.0274
     19  C1         1.0525    4.2398   -8.0764 C.2     1  T_I1       -0.0796
     20  C4        -0.0605    3.9864   -9.1102 C.3     1  T_I1       -0.0440
     21  H41       -0.6125    3.0859   -8.8372 H       1  T_I1        0.0274
     22  H42       -0.7418    4.8374   -9.1272 H       1  T_I1        0.0274
     23  H43        0.3823    3.8555  -10.0969 H       1  T_I1        0.0274
     24  C2         1.6559    3.2064   -7.4740 C.2     1  T_I1       -0.0850
     25  H2         2.4288    3.3827   -6.7558 H       1  T_I1        0.0572
     26  C3         1.2380    1.7740   -7.8120 C.3     1  T_I1       -0.0308
     27  H31        1.3876    1.1474   -6.9576 H       1  T_I1        0.0310
     28  H32        0.2042    1.7594   -8.0874 H       1  T_I1        0.0310
@<TRIPOS>BOND
     1     1     4    1
     2     1     2    1
     3     1     3    1
     4     1    26    1
     5     4     9    2
     6     4     5    1
     7     5     6    1
     8     5     7    1
     9     5     8    1
    10     9    11    1
    11     9    10    1
    12    11    12    1
    13    11    13    1
    14    11    14    1
    15    15    19    1
    16    15    16    1
    17    15    17    1
    18    15    18    1
    19    19    24    2
    20    19    20    1
    21    20    21    1
    22    20    22    1
    23    20    23    1
    24    24    26    1
    25    24    25    1
    26    26    27    1
    27    26    28    1
@<TRIPOS>MOLECULE
/home/jramos/Programacion/GITHUB_REPO_DIR/gecos2/data/IsoP.pdb
 28 27 0 0 0
SMALL
GASTEIGER

@<TRIPOS>ATOM
      1  C1         2.0880    1.2530   -8.9850 C.3     1  T_I1       -0.0286
      2  HC1        1.7950    0.2510   -9.2200 H       1  T_I1        0.0313
      3  HC3        1.9360    1.8780   -9.8400 H       1  T_I1        0.0313
      4  C1         3.5670    1.2740   -8.5940 C.2     1  T_I1       -0.0765
      5  C4         4.2046    0.0419   -7.9243 C.3     1  T_I1       -0.0438
      6  H41        4.9823    0.3658   -7.2330 H       1  T_I1        0.0274
      7  H42        3.4399   -0.5116   -7.3790 H       1  T_I1        0.0274
      8  H43        4.6422   -0.6015   -8.6883 H       1  T_I1        0.0274
      9  C2         4.3089    2.3639   -8.8348 C.2     1  T_I1       -0.0881
     10  H2         3.8655    3.2197   -9.2999 H       1  T_I1        0.0569
     11  C3         5.7875    2.3843   -8.4450 C.3     1  T_I1       -0.0466
     12  H31        6.0519    1.4501   -7.9951 H       1  T_I1        0.0272
     13  H32        6.3853    2.5412   -9.3184 H       1  T_I1        0.0272
     14  H33        5.9617    3.1767   -7.7464 H       1  T_I1        0.0272
     15  C          1.5597    0.5009   -4.1332 C.3     1  T_I1       -0.0440
     16  HC1        1.7804   -0.4959   -4.4537 H       1  T_I1        0.0274
     17  HC2        2.3763    0.8785   -3.5523 H       1  T_I1        0.0274
     18  HC3        0.6713    0.4952   -3.5360 H       1  T_I1        0.0274
     19  C1         1.3471    1.3953   -5.3565 C.2     1  T_I1       -0.0796
     20  C4         1.0139    2.8873   -5.1707 C.3     1  T_I1       -0.0440
     21  H41        0.3653    3.2192   -5.9827 H       1  T_I1        0.0274
     22  H42        0.5031    3.0301   -4.2181 H       1  T_I1        0.0274
     23  H43        1.9345    3.4697   -5.1805 H       1  T_I1        0.0274
     24  C2         1.4515    0.8801   -6.5888 C.2     1  T_I1       -0.0850
     25  H2         1.6828   -0.1563   -6.7177 H       1  T_I1        0.0572
     26  C3         1.2380    1.7740   -7.8120 C.3     1  T_I1       -0.0308
     27  H31        0.2041    1.7610   -8.0877 H       1  T_I1        0.0310
     28  H32        1.5311    2.7759   -7.5773 H       1  T_I1        0.0310
@<TRIPOS>BOND
     1     1     4    1
     2     1     2    1
     3     1     3    1
     4     1    26    1
     5     4     9    2
     6     4     5    1
     7     5     6    1
     8     5     7    1
     9     5     8    1
    10     9    11    1
    11     9    10    1
    12    11    12    1
    13    11    13    1
    14    11    14    1
    15    15    19    1
    16    15    16    1
    17    15    17    1
    18    15    18    1
    19    19    24    2
    20    19    20    1
    21    20    21    1
    22    20    22    1
    23    20    23    1
    24    24    26    1
    25    24    25    1
    26    26    27    1
    27    26    28    1
@<TRIPOS>MOLECULE
/home/jramos/Programacion/GITHUB_REPO_DIR/gecos2/data/IsoP.pdb
 28 27 0 0 0
SMALL
GASTEIGER

@<TRIPOS>ATOM
      1  C1         2.0880    1.2530   -8.9850 C.3     1  T_I1       -0.0286
      2  HC1        1.7950    0.2510   -9.2200 H       1  T_I1        0.0313
      3  HC3        1.9360    1.8780   -9.8400 H       1  T_I1        0.0313
      4  C1         3.5670    1.2740   -8.5940 C.2     1  T_I1       -0.0765
      5  C4         4.4193    2.5272   -8.8698 C.3     1  T_I1       -0.0438
      6  H41        5.4453    2.2290   -9.0843 H       1  T_I1        0.0274
      7  H42        4.0095    3.0641   -9.7256 H       1  T_I1        0.0274
      8  H43        4.4050    3.1766   -7.9939 H       1  T_I1        0.0274
      9  C2         4.1216    0.2025   -8.0104 C.2     1  T_I1       -0.0881
     10  H2         3.5292   -0.6679   -7.8191 H       1  T_I1        0.0569
     11  C3         5.5997    0.2241   -7.6186 C.3     1  T_I1       -0.0466
     12  H31        6.0270    1.1682   -7.8857 H       1  T_I1        0.0272
     13  H32        5.6918    0.0769   -6.5629 H       1  T_I1        0.0272
     14  H33        6.1172   -0.5585   -8.1343 H       1  T_I1        0.0272
     15  C          1.9647    5.0896   -5.8790 C.3     1  T_I1       -0.0440
     16  HC1        2.3180    5.5767   -6.7639 H       1  T_I1        0.0274
     17  HC2        1.1236    5.6249   -5.4881 H       1  T_I1        0.0274
     18  HC3        2.7452    5.0702   -5.1466 H       1  T_I1        0.0274
     19  C1         1.5458    3.6572   -6.2171 C.2     1  T_I1       -0.0796
     20  C4         0.9972    2.7346   -5.1128 C.3     1  T_I1       -0.0440
     21  H41        1.2843    1.7035   -5.3242 H       1  T_I1        0.0274
     22  H42        1.4099    3.0350   -4.1495 H       1  T_I1        0.0274
     23  H43       -0.0892    2.8097   -5.0823 H       1  T_I1        0.0274
     24  C2         1.6559    3.2064   -7.4740 C.2     1  T_I1       -0.0850
     25  H2         2.0372    3.8474   -8.2409 H       1  T_I1        0.0572
     26  C3         1.2380    1.7740   -7.8120 C.3     1  T_I1       -0.0308
     27  H31        1.3876    1.1474   -6.9576 H       1  T_I1        0.0310
     28  H32        0.2042    1.7594   -8.0874 H       1  T_I1        0.0310
@<TRIPOS>BOND
     1     1     4    1
     2     1     2    1
     3     1     3    1
     4     1    26    1
     5     4     9    2
     6     4     5    1
     7     5     6    1
     8     5     7    1
     9     5     8    1
    10     9    11    1
    11     9    10    1
    12    11    12    1
    13    11    13    1
    14    11    14    1
    15    15    19    1
    16    15    16    1
    17    15    17    1
    18    15    18    1
    19    19    24    2
    20    19    20    1
    21    20    21    1
    22    20    22    1
    23    20    23    1
    24    24    26    1
    25    24    25    1
    26    26    27    1
    27    26    28    1
@<TRIPOS>MOLECULE
/home/jramos/Programacion/GITHUB_REPO_DIR/gecos2/data/IsoP.pdb
 28 27 0 0 0
SMALL
GASTEIGER

@<TRIPOS>ATOM
      1  C1         2.0880    1.2530   -8.9850 C.3     1  T_I1       -0.0286
      2  HC1        1.7950    0.2510   -9.2200 H       1  T_I1        0.0313
      3  HC3        1.9360    1.8780   -9.8400 H       1  T_I1        0.0313
      4  C1         3.5670    1.2740   -8.5940 C.2     1  T_I1       -0.0765
      5  C4         4.6360    0.8002   -9.5968 C.3     1  T_I1       -0.0438
      6  H41        5.4646    0.3434   -9.0560 H       1  T_I1        0.0274
      7  H42        4.1977    0.0692  -10.2767 H       1  T_I1        0.0274
      8  H43        5.0016    1.6536  -10.1689 H       1  T_I1        0.0274
      9  C2         3.9334    1.7056   -7.3792 C.2     1  T_I1       -0.0881
     10  H2         3.1904    2.0346   -6.6828 H       1  T_I1        0.0569
     11  C3         5.4119    1.7276   -6.9889 C.3     1  T_I1       -0.0466
     12  H31        6.0026    1.3652   -7.8043 H       1  T_I1        0.0272
     13  H32        5.7047    2.7296   -6.7542 H       1  T_I1        0.0272
     14  H33        5.5648    1.1018   -6.1339 H       1  T_I1        0.0272
     15  C         -2.6489    2.1501   -7.7238 C.3     1  T_I1       -0.0440
     16  HC1       -2.7489    1.7800   -8.7229 H       1  T_I1        0.0274
     17  HC2       -3.1889    1.5148   -7.0517 H       1  T_I1        0.0274
     18  HC3       -3.0452    3.1431   -7.6699 H       1  T_I1        0.0274
     19  C1        -1.1700    2.1684   -7.3316 C.2     1  T_I1       -0.0796
     20  C4        -0.7502    2.6613   -5.9343 C.3     1  T_I1       -0.0440
     21  H41        0.2261    3.1443   -5.9969 H       1  T_I1        0.0274
     22  H42       -1.4851    3.3771   -5.5650 H       1  T_I1        0.0274
     23  H43       -0.6929    1.8143   -5.2516 H       1  T_I1        0.0274
     24  C2        -0.2408    1.7549   -8.2037 C.2     1  T_I1       -0.0850
     25  H2        -0.5326    1.4127   -9.1743 H       1  T_I1        0.0572
     26  C3         1.2380    1.7740   -7.8120 C.3     1  T_I1       -0.0308
     27  H31        1.5320    2.7755   -7.5761 H       1  T_I1        0.0310
     28  H32        1.3889    1.1482   -6.9574 H       1  T_I1        0.0310
@<TRIPOS>BOND
     1     1     4    1
     2     1     2    1
     3     1     3    1
     4     1    26    1
     5     4     9    2
     6     4     5    1
     7     5     6    1
     8     5     7    1
     9     5     8    1
    10     9    11    1
    11     9    10    1
    12    11    12    1
    13    11    13    1
    14    11    14    1
    15    15    19    1
    16    15    16    1
    17    15    17    1
    18    15    18    1
    19    19    24    2
    20    19    20    1
    21    20    21    1
    22    20    22    1
    23    20    23    1
    24    24    26    1
    25    24    25    1
    26    26    27    1
    27    26    28    1
@<TRIPOS>MOLECULE
/home/jramos/Programacion/GITHUB_REPO_DIR/gecos2/data/IsoP.pdb
 28 27 0 0 0
SMALL
GASTEIGER

@<TRIPOS>ATOM
      1  C1         2.0880    1.2530   -8.9850 C.3     1  T_I1       -0.0286
      2  HC1        1.7950    0.2510   -9.2200 H       1  T_I1        0.0313
      3  HC3        1.9360    1.8780   -9.8400 H       1  T_I1        0.0313
      4  C1         3.5670    1.2740   -8.5940 C.2     1  T_I1       -0.0765
      5  C4         4.0850    2.3254   -7.5944 C.3     1  T_I1       -0.0438
      6  H41        5.1124    2.5893   -7.8443 H       1  T_I1        0.0274
      7  H42        3.4574    3.2155   -7.6456 H       1  T_I1        0.0274
      8  H43        4.0503    1.9151   -6.5846 H       1  T_I1        0.0274
      9  C2         4.4125    0.3770   -9.1202 C.2     1  T_I1       -0.0881
     10  H2         4.0523   -0.3531   -9.8147 H       1  T_I1        0.0569
     11  C3         5.8906    0.3974   -8.7284 C.3     1  T_I1       -0.0466
     12  H31        6.0650    1.1901   -8.0309 H       1  T_I1        0.0272
     13  H32        6.1543   -0.5372   -8.2791 H       1  T_I1        0.0272
     14  H33        6.4894    0.5549   -9.6018 H       1  T_I1        0.0272
     15  C         -2.4256    2.8745   -8.6023 C.3     1  T_I1       -0.0440
     16  HC1       -2.7194    1.8731   -8.8387 H       1  T_I1        0.0274
     17  HC2       -3.0167    3.2369   -7.7861 H       1  T_I1        0.0274
     18  HC3       -2.5766    3.5017   -9.4565 H       1  T_I1        0.0274
     19  C1        -0.9468    2.8936   -8.2095 C.2     1  T_I1       -0.0796
     20  C4        -0.2707    4.2214   -7.8204 C.3     1  T_I1       -0.0440
     21  H41        0.7764    4.1999   -8.1260 H       1  T_I1        0.0274
     22  H42       -0.7767    5.0476   -8.3206 H       1  T_I1        0.0274
     23  H43       -0.3311    4.3580   -6.7413 H       1  T_I1        0.0274
     24  C2        -0.2408    1.7549   -8.2037 C.2     1  T_I1       -0.0850
     25  H2        -0.7106    0.8327   -8.4742 H       1  T_I1        0.0572
     26  C3         1.2380    1.7740   -7.8120 C.3     1  T_I1       -0.0308
     27  H31        1.5320    2.7755   -7.5761 H       1  T_I1        0.0310
     28  H32        1.3889    1.1482   -6.9574 H       1  T_I1        0.0310
@<TRIPOS>BOND
     1     1     4    1
     2     1     2    1
     3     1     3    1
     4     1    26    1
     5     4     9    2
     6     4     5    1
     7     5     6    1
     8     5     7    1
     9     5     8    1
    10     9    11    1
    11     9    10    1
    12    11    12    1
    13    11    13    1
    14    11    14    1
    15    15    19    1
    16    15    16    1
    17    15    17    1
    18    15    18    1
    19    19    24    2
    20    19    20    1
    21    20    21    1
    22    20    22    1
    23    20    23    1
    24    24    26    1
    25    24    25    1
    26    26    27    1
    27    26    28    1
@<TRIPOS>MOLECULE
/home/jramos/Programacion/GITHUB_REPO_DIR/gecos2/data/IsoP.pdb
 28 27 0 0 0
SMALL
GASTEIGER

@<TRIPOS>ATOM
      1  C1         2.0880    1.2530   -8.9850 C.3     1  T_I1       -0.0286
      2  HC1        1.7950    0.2510   -9.2200 H       1  T_I1        0.0313
      3  HC3        1.9360    1.8780   -9.8400 H       1  T_I1        0.0313
      4  C1         3.5670    1.2740   -8.5940 C.2     1  T_I1       -0.0765
      5  C4         4.4193    2.5272   -8.8698 C.3     1  T_I1       -0.0438
      6  H41        5.4453    2.2290   -9.0843 H       1  T_I1        0.0274
      7  H42        4.0095    3.0641   -9.7256 H       1  T_I1        0.0274
      8  H43        4.4050    3.1766   -7.9939 H       1  T_I1        0.0274
      9  C2         4.1216    0.2025   -8.0104 C.2     1  T_I1       -0.0881
     10  H2         3.5292   -0.6679   -7.8191 H       1  T_I1        0.0569
     11  C3         5.5997    0.2241   -7.6186 C.3     1  T_I1       -0.0466
     12  H31        6.0270    1.1682   -7.8857 H       1  T_I1        0.0272
     13  H32        5.6918    0.0769   -6.5629 H       1  T_I1        0.0272
     14  H33        6.1172   -0.5585   -8.1343 H       1  T_I1        0.0272
     15  C          2.1521    0.5076   -4.2318 C.3     1  T_I1       -0.0440
     16  HC1        1.8579   -0.4942   -4.4659 H       1  T_I1        0.0274
     17  HC2        3.1866    0.5207   -3.9552 H       1  T_I1        0.0274
     18  HC3        1.5616    0.8715   -3.4164 H       1  T_I1        0.0274
     19  C1         1.9395    1.4016   -5.4553 C.2     1  T_I1       -0.0796
     20  C4         2.2873    2.9001   -5.3836 C.3     1  T_I1       -0.0440
     21  H41        1.6035    3.4632   -6.0205 H       1  T_I1        0.0274
     22  H42        2.1917    3.2469   -4.3544 H       1  T_I1        0.0274
     23  H43        3.3104    3.0530   -5.7252 H       1  T_I1        0.0274
     24  C2         1.4515    0.8801   -6.5888 C.2     1  T_I1       -0.0850
     25  H2         1.2099   -0.1608   -6.6384 H       1  T_I1        0.0572
     26  C3         1.2380    1.7740   -7.8120 C.3     1  T_I1       -0.0308
     27  H31        0.2041    1.7610   -8.0877 H       1  T_I1        0.0310
     28  H32        1.5311    2.7759   -7.5773 H       1  T_I1        0.0310
@<TRIPOS>BOND
     1     1     4    1
     2     1     2    1
     3     1     3    1
     4     1    26    1
     5     4     9    2
     6     4     5    1
     7     5     6    1
     8     5     7    1
     9     5     8    1
    10     9    11    1
    11     9    10    1
    12    11    12    1
    13    11    13    1
    14    11    14    1
    15    15    19    1
    16    15    16    1
    17    15    17    1
    18    15    18    1
    19    19    24    2
    20    19    20    1
    21    20    21    1
    22    20    22    1
    23    20    23    1
    24    24    26    1
    25    24    25    1
    26    26    27    1
    27    26    28    1
@<TRIPOS>MOLECULE
/home/jramos/Programacion/GITHUB_REPO_DIR/gecos2/data/IsoP.pdb
 28 27 0 0 0
SMALL
GASTEIGER

@<TRIPOS>ATOM
      1  C1         2.0880    1.2530   -8.9850 C.3     1  T_I1       -0.0286
      2  HC1        1.7950    0.2510   -9.2200 H       1  T_I1        0.0313
      3  HC3        1.9360    1.8780   -9.8400 H       1  T_I1        0.0313
      4  C1         3.5670    1.2740   -8.5940 C.2     1  T_I1       -0.0765
      5  C4         4.4193    2.5272   -8.8698 C.3     1  T_I1       -0.0438
      6  H41        5.4453    2.2290   -9.0843 H       1  T_I1        0.0274
      7  H42        4.0095    3.0641   -9.7256 H       1  T_I1        0.0274
      8  H43        4.4050    3.1766   -7.9939 H       1  T_I1        0.0274
      9  C2         4.1216    0.2025   -8.0104 C.2     1  T_I1       -0.0881
     10  H2         3.5292   -0.6679   -7.8191 H       1  T_I1        0.0569
     11  C3         5.5997    0.2241   -7.6186 C.3     1  T_I1       -0.0466
     12  H31        6.0270    1.1682   -7.8857 H       1  T_I1        0.0272
     13  H32        5.6918    0.0769   -6.5629 H       1  T_I1        0.0272
     14  H33        6.1172   -0.5585   -8.1343 H       1  T_I1        0.0272
     15  C          1.0205    0.2514   -4.2215 C.3     1  T_I1       -0.0440
     16  HC1        1.7105   -0.5292   -4.4658 H       1  T_I1        0.0274
     17  HC2        1.4137    0.8363   -3.4151 H       1  T_I1        0.0274
     18  HC3        0.0856   -0.1783   -3.9259 H       1  T_I1        0.0274
     19  C1         0.8076    1.1461   -5.4445 C.2     1  T_I1       -0.0796
     20  C4        -0.1460    2.3523   -5.3592 C.3     1  T_I1       -0.0440
     21  H41       -0.6206    2.5102   -6.3288 H       1  T_I1        0.0274
     22  H42       -0.9124    2.1579   -4.6085 H       1  T_I1        0.0274
     23  H43        0.4172    3.2426   -5.0816 H       1  T_I1        0.0274
     24  C2         1.4515    0.8801   -6.5888 C.2     1  T_I1       -0.0850
     25  H2         2.1137    0.0421   -6.6479 H       1  T_I1        0.0572
     26  C3         1.2380    1.7740   -7.8120 C.3     1  T_I1       -0.0308
     27  H31        0.2041    1.7610   -8.0877 H       1  T_I1        0.0310
     28  H32        1.5311    2.7759   -7.5773 H       1  T_I1        0.0310
@<TRIPOS>BOND
     1     1     4    1
     2     1     2    1
     3     1     3    1
     4     1    26    1
     5     4     9    2
     6     4     5    1
     7     5     6    1
     8     5     7    1
     9     5     8    1
    10     9    11    1
    11     9    10    1
    12    11    12    1
    13    11    13    1
    14    11    14    1
    15    15    19    1
    16    15    16    1
    17    15    17    1
    18    15    18    1
    19    19    24    2
    20    19    20    1
    21    20    21    1
    22    20    22    1
    23    20    23    1
    24    24    26    1
    25    24    25    1
    26    26    27    1
    27    26    28    1
@<TRIPOS>MOLECULE
/home/jramos/Programacion/GITHUB_REPO_DIR/gecos2/data/IsoP.pdb
 28 27 0 0 0
SMALL
GASTEIGER

@<TRIPOS>ATOM
      1  C1         2.0880    1.2530   -8.9850 C.3     1  T_I1       -0.0286
      2  HC1        1.7950    0.2510   -9.2200 H       1  T_I1        0.0313
      3  HC3        1.9360    1.8780   -9.8400 H       1  T_I1        0.0313
      4  C1         3.5670    1.2740   -8.5940 C.2     1  T_I1       -0.0765
      5  C4         4.6360    0.8002   -9.5968 C.3     1  T_I1       -0.0438
      6  H41        5.4646    0.3434   -9.0560 H       1  T_I1        0.0274
      7  H42        4.1977    0.0692  -10.2767 H       1  T_I1        0.0274
      8  H43        5.0016    1.6536  -10.1689 H       1  T_I1        0.0274
      9  C2         3.9334    1.7056   -7.3792 C.2     1  T_I1       -0.0881
     10  H2         3.1904    2.0346   -6.6828 H       1  T_I1        0.0569
     11  C3         5.4119    1.7276   -6.9889 C.3     1  T_I1       -0.0466
     12  H31        6.0026    1.3652   -7.8043 H       1  T_I1        0.0272
     13  H32        5.7047    2.7296   -6.7542 H       1  T_I1        0.0272
     14  H33        5.5648    1.1018   -6.1339 H       1  T_I1        0.0272
     15  C         -2.2720    2.8079   -9.1790 C.3     1  T_I1       -0.0440
     16  HC1       -2.6994    1.8634   -8.9139 H       1  T_I1        0.0274
     17  HC2       -2.7889    3.5913   -8.6633 H       1  T_I1        0.0274
     18  HC3       -2.3633    2.9570  -10.2352 H       1  T_I1        0.0274
     19  C1        -0.7931    2.8275   -8.7864 C.2     1  T_I1       -0.0796
     20  C4         0.0596    4.0802   -9.0606 C.3     1  T_I1       -0.0440
     21  H41        1.0865    3.7814   -9.2762 H       1  T_I1        0.0274
     22  H42       -0.3483    4.6177   -9.9170 H       1  T_I1        0.0274
     23  H43        0.0465    4.7282   -8.1849 H       1  T_I1        0.0274
     24  C2        -0.2408    1.7549   -8.2037 C.2     1  T_I1       -0.0850
     25  H2        -0.8333    0.8848   -8.0135 H       1  T_I1        0.0572
     26  C3         1.2380    1.7740   -7.8120 C.3     1  T_I1       -0.0308
     27  H31        1.5320    2.7755   -7.5761 H       1  T_I1        0.0310
     28  H32        1.3889    1.1482   -6.9574 H       1  T_I1        0.0310
@<TRIPOS>BOND
     1     1     4    1
     2     1     2    1
     3     1     3    1
     4     1    26    1
     5     4     9    2
     6     4     5    1
     7     5     6    1
     8     5     7    1
     9     5     8    1
    10     9    11    1
    11     9    10    1
    12    11    12    1
    13    11    13    1
    14    11    14    1
    15    15    19    1
    16    15    16    1
    17    15    17    1
    18    15    18    1
    19    19    24    2
    20    19    20    1
    21    20    21    1
    22    20    22    1
    23    20    23    1
    24    24    26    1
    25    24    25    1
    26    26    27    1
    27    26    28    1
@<TRIPOS>MOLECULE
/home/jramos/Programacion/GITHUB_REPO_DIR/gecos2/data/IsoP.pdb
 28 27 0 0 0
SMALL
GASTEIGER

@<TRIPOS>ATOM
      1  C1         2.0880    1.2530   -8.9850 C.3     1  T_I1       -0.0286
      2  HC1        1.7950    0.2510   -9.2200 H       1  T_I1        0.0313
      3  HC3        1.9360    1.8780   -9.8400 H       1  T_I1        0.0313
      4  C1         3.5670    1.2740   -8.5940 C.2     1  T_I1       -0.0765
      5  C4         4.3810   -0.0338   -8.5876 C.3     1  T_I1       -0.0438
      6  H41        5.1387    0.0136   -7.8057 H       1  T_I1        0.0274
      7  H42        3.7145   -0.8756   -8.3984 H       1  T_I1        0.0274
      8  H43        4.8653   -0.1654   -9.5557 H       1  T_I1        0.0274
      9  C2         4.1554    2.4303   -8.2578 C.2     1  T_I1       -0.0881
     10  H2         3.5895    3.3386   -8.2624 H       1  T_I1        0.0569
     11  C3         5.6340    2.4513   -7.8682 C.3     1  T_I1       -0.0466
     12  H31        6.0318    1.4592   -7.9197 H       1  T_I1        0.0272
     13  H32        6.1719    3.0864   -8.5406 H       1  T_I1        0.0272
     14  H33        5.7348    2.8228   -6.8692 H       1  T_I1        0.0272
     15  C          0.6791   -0.1740   -4.4728 C.3     1  T_I1       -0.0440
     16  HC1        1.6667   -0.5852   -4.4990 H       1  T_I1        0.0274
     17  HC2        0.5569    0.4054   -3.5804 H       1  T_I1        0.0274
     18  HC3       -0.0385   -0.9684   -4.4817 H       1  T_I1        0.0274
     19  C1         0.4658    0.7208   -5.6956 C.2     1  T_I1       -0.0796
     20  C4        -0.8816    1.4385   -5.8986 C.3     1  T_I1       -0.0440
     21  H41       -1.0899    1.5263   -6.9659 H       1  T_I1        0.0274
     22  H42       -1.6755    0.8639   -5.4209 H       1  T_I1        0.0274
     23  H43       -0.8349    2.4325   -5.4551 H       1  T_I1        0.0274
     24  C2         1.4515    0.8801   -6.5888 C.2     1  T_I1       -0.0850
     25  H2         2.3872    0.3814   -6.4477 H       1  T_I1        0.0572
     26  C3         1.2380    1.7740   -7.8120 C.3     1  T_I1       -0.0308
     27  H31        0.2041    1.7610   -8.0877 H       1  T_I1        0.0310
     28  H32        1.5311    2.7759   -7.5773 H       1  T_I1        0.0310
@<TRIPOS>BOND
     1     1     4    1
     2     1     2    1
     3     1     3    1
     4     1    26    1
     5     4     9    2
     6     4     5    1
     7     5     6    1
     8     5     7    1
     9     5     8    1
    10     9    11    1
    11     9    10    1
    12    11    12    1
    13    11    13    1
    14    11    14    1
    15    15    19    1
    16    15    16    1
    17    15    17    1
    18    15    18    1
    19    19    24    2
    20    19    20    1
    21    20    21    1
    22    20    22    1
    23    20    23    1
    24    24    26    1
    25    24    25    1
    26    26    27    1
    27    26    28    1
@<TRIPOS>MOLECULE
/home/jramos/Programacion/GITHUB_REPO_DIR/gecos2/data/IsoP.pdb
 28 27 0 0 0
SMALL
GASTEIGER

@<TRIPOS>ATOM
      1  C1         2.0880    1.2530   -8.9850 C.3     1  T_I1       -0.0286
      2  HC1        1.7950    0.2510   -9.2200 H       1  T_I1        0.0313
      3  HC3        1.9360    1.8780   -9.8400 H       1  T_I1        0.0313
      4  C1         3.5670    1.2740   -8.5940 C.2     1  T_I1       -0.0765
      5  C4         4.0850    2.3254   -7.5944 C.3     1  T_I1       -0.0438
      6  H41        5.1124    2.5893   -7.8443 H       1  T_I1        0.0274
      7  H42        3.4574    3.2155   -7.6456 H       1  T_I1        0.0274
      8  H43        4.0503    1.9151   -6.5846 H       1  T_I1        0.0274
      9  C2         4.4125    0.3770   -9.1202 C.2     1  T_I1       -0.0881
     10  H2         4.0523   -0.3531   -9.8147 H       1  T_I1        0.0569
     11  C3         5.8906    0.3974   -8.7284 C.3     1  T_I1       -0.0466
     12  H31        6.0650    1.1901   -8.0309 H       1  T_I1        0.0272
     13  H32        6.1543   -0.5372   -8.2791 H       1  T_I1        0.0272
     14  H33        6.4894    0.5549   -9.6018 H       1  T_I1        0.0272
     15  C          0.8779   -1.0801   -5.1697 C.3     1  T_I1       -0.0440
     16  HC1        1.6945   -0.7031   -4.5900 H       1  T_I1        0.0274
     17  HC2       -0.0109   -1.0873   -4.5723 H       1  T_I1        0.0274
     18  HC3        1.0985   -2.0773   -5.4906 H       1  T_I1        0.0274
     19  C1         0.6636   -0.1856   -6.3926 C.2     1  T_I1       -0.0796
     20  C4        -0.4579   -0.5102   -7.3968 C.3     1  T_I1       -0.0440
     21  H41       -0.1479   -0.2088   -8.3984 H       1  T_I1        0.0274
     22  H42       -0.6564   -1.5822   -7.3865 H       1  T_I1        0.0274
     23  H43       -1.3625    0.0296   -7.1191 H       1  T_I1        0.0274
     24  C2         1.4515    0.8801   -6.5888 C.2     1  T_I1       -0.0850
     25  H2         2.2306    1.1053   -5.8913 H       1  T_I1        0.0572
     26  C3         1.2380    1.7740   -7.8120 C.3     1  T_I1       -0.0308
     27  H31        0.2041    1.7610   -8.0877 H       1  T_I1        0.0310
     28  H32        1.5311    2.7759   -7.5773 H       1  T_I1        0.0310
@<TRIPOS>BOND
     1     1     4    1
     2     1     2    1
     3     1     3    1
     4     1    26    1
     5     4     9    2
     6     4     5    1
     7     5     6    1
     8     5     7    1
     9     5     8    1
    10     9    11    1
    11     9    10    1
    12    11    12    1
    13    11    13    1
    14    11    14    1
    15    15    19    1
    16    15    16    1
    17    15    17    1
    18    15    18    1
    19    19    24    2
    20    19    20    1
    21    20    21    1
    22    20    22    1
    23    20    23    1
    24    24    26    1
    25    24    25    1
    26    26    27    1
    27    26    28    1
@<TRIPOS>MOLECULE
/home/jramos/Programacion/GITHUB_REPO_DIR/gecos2/data/IsoP.pdb
 28 27 0 0 0
SMALL
GASTEIGER

@<TRIPOS>ATOM
      1  C1         2.0880    1.2530   -8.9850 C.3     1  T_I1       -0.0286
      2  HC1        1.7950    0.2510   -9.2200 H       1  T_I1        0.0313
      3  HC3        1.9360    1.8780   -9.8400 H       1  T_I1        0.0313
      4  C1         3.5670    1.2740   -8.5940 C.2     1  T_I1       -0.0765
      5  C4         4.4193    2.5272   -8.8698 C.3     1  T_I1       -0.0438
      6  H41        5.4453    2.2290   -9.0843 H       1  T_I1        0.0274
      7  H42        4.0095    3.0641   -9.7256 H       1  T_I1        0.0274
      8  H43        4.4050    3.1766   -7.9939 H       1  T_I1        0.0274
      9  C2         4.1216    0.2025   -8.0104 C.2     1  T_I1       -0.0881
     10  H2         3.5292   -0.6679   -7.8191 H       1  T_I1        0.0569
     11  C3         5.5997    0.2241   -7.6186 C.3     1  T_I1       -0.0466
     12  H31        6.0270    1.1682   -7.8857 H       1  T_I1        0.0272
     13  H32        5.6918    0.0769   -6.5629 H       1  T_I1        0.0272
     14  H33        6.1172   -0.5585   -8.1343 H       1  T_I1        0.0272
     15  C          0.6269   -0.6614   -4.8198 C.3     1  T_I1       -0.0440
     16  HC1        1.6609   -0.6488   -4.5445 H       1  T_I1        0.0274
     17  HC2        0.0355   -0.2987   -4.0040 H       1  T_I1        0.0274
     18  HC3        0.3323   -1.6635   -5.0544 H       1  T_I1        0.0274
     19  C1         0.4130    0.2334   -6.0426 C.2     1  T_I1       -0.0796
     20  C4        -0.9957    0.3908   -6.6444 C.3     1  T_I1       -0.0440
     21  H41       -0.9169    0.5310   -7.7235 H       1  T_I1        0.0274
     22  H42       -1.5818   -0.5050   -6.4378 H       1  T_I1        0.0274
     23  H43       -1.4864    1.2565   -6.2009 H       1  T_I1        0.0274
     24  C2         1.4515    0.8801   -6.5888 C.2     1  T_I1       -0.0850
     25  H2         2.4300    0.7705   -6.1708 H       1  T_I1        0.0572
     26  C3         1.2380    1.7740   -7.8120 C.3     1  T_I1       -0.0308
     27  H31        0.2041    1.7610   -8.0877 H       1  T_I1        0.0310
     28  H32        1.5311    2.7759   -7.5773 H       1  T_I1        0.0310
@<TRIPOS>BOND
     1     1     4    1
     2     1     2    1
     3     1     3    1
     4     1    26    1
     5     4     9    2
     6     4     5    1
     7     5     6    1
     8     5     7    1
     9     5     8    1
    10     9    11    1
    11     9    10    1
    12    11    12    1
    13    11    13    1
    14    11    14    1
    15    15    19    1
    16    15    16    1
    17    15    17    1
    18    15    18    1
    19    19    24    2
    20    19    20    1
    21    20    21    1
    22    20    22    1
    23    20    23    1
    24    24    26    1
    25    24    25    1
    26    26    27    1
    27    26    28    1
@<TRIPOS>MOLECULE
/home/jramos/Programacion/GITHUB_REPO_DIR/gecos2/data/IsoP.pdb
 28 27 0 0 0
SMALL
GASTEIGER

@<TRIPOS>ATOM
      1  C1         2.0880    1.2530   -8.9850 C.3     1  T_I1       -0.0286
      2  HC1        1.7950    0.2510   -9.2200 H       1  T_I1        0.0313
      3  HC3        1.9360    1.8780   -9.8400 H       1  T_I1        0.0313
      4  C1         3.5670    1.2740   -8.5940 C.2     1  T_I1       -0.0765
      5  C4         4.4193    2.5272   -8.8698 C.3     1  T_I1       -0.0438
      6  H41        5.4453    2.2290   -9.0843 H       1  T_I1        0.0274
      7  H42        4.0095    3.0641   -9.7256 H       1  T_I1        0.0274
      8  H43        4.4050    3.1766   -7.9939 H       1  T_I1        0.0274
      9  C2         4.1216    0.2025   -8.0104 C.2     1  T_I1       -0.0881
     10  H2         3.5292   -0.6679   -7.8191 H       1  T_I1        0.0569
     11  C3         5.5997    0.2241   -7.6186 C.3     1  T_I1       -0.0466
     12  H31        6.0270    1.1682   -7.8857 H       1  T_I1        0.0272
     13  H32        5.6918    0.0769   -6.5629 H       1  T_I1        0.0272
     14  H33        6.1172   -0.5585   -8.1343 H       1  T_I1        0.0272
     15  C          1.1778    5.4960   -6.6286 C.3     1  T_I1       -0.0440
     16  HC1        2.2139    5.6298   -6.8603 H       1  T_I1        0.0274
     17  HC2        0.5916    6.1846   -7.2022 H       1  T_I1        0.0274
     18  HC3        1.0193    5.6773   -5.5855 H       1  T_I1        0.0274
     19  C1         0.7595    4.0637   -6.9675 C.2     1  T_I1       -0.0796
     20  C4        -0.6919    3.6083   -6.7270 C.3     1  T_I1       -0.0440
     21  H41       -0.7017    2.5507   -6.4590 H       1  T_I1        0.0274
     22  H42       -1.1263    4.1915   -5.9147 H       1  T_I1        0.0274
     23  H43       -1.2755    3.7581   -7.6346 H       1  T_I1        0.0274
     24  C2         1.6559    3.2064   -7.4740 C.2     1  T_I1       -0.0850
     25  H2         2.6640    3.5229   -7.6408 H       1  T_I1        0.0572
     26  C3         1.2380    1.7740   -7.8120 C.3     1  T_I1       -0.0308
     27  H31        1.3876    1.1474   -6.9576 H       1  T_I1        0.0310
     28  H32        0.2042    1.7594   -8.0874 H       1  T_I1        0.0310
@<TRIPOS>BOND
     1     1     4    1
     2     1     2    1
     3     1     3    1
     4     1    26    1
     5     4     9    2
     6     4     5    1
     7     5     6    1
     8     5     7    1
     9     5     8    1
    10     9    11    1
    11     9    10    1
    12    11    12    1
    13    11    13    1
    14    11    14    1
    15    15    19    1
    16    15    16    1
    17    15    17    1
    18    15    18    1
    19    19    24    2
    20    19    20    1
    21    20    21    1
    22    20    22    1
    23    20    23    1
    24    24    26    1
    25    24    25    1
    26    26    27    1
    27    26    28    1
@<TRIPOS>MOLECULE
/home/jramos/Programacion/GITHUB_REPO_DIR/gecos2/data/IsoP.pdb
 28 27 0 0 0
SMALL
GASTEIGER

@<TRIPOS>ATOM
      1  C1         2.0880    1.2530   -8.9850 C.3     1  T_I1       -0.0286
      2  HC1        1.7950    0.2510   -9.2200 H       1  T_I1        0.0313
      3  HC3        1.9360    1.8780   -9.8400 H       1  T_I1        0.0313
      4  C1         3.5670    1.2740   -8.5940 C.2     1  T_I1       -0.0765
      5  C4         4.6463    1.4864   -9.6724 C.3     1  T_I1       -0.0438
      6  H41        5.5467    0.9370   -9.3986 H       1  T_I1        0.0274
      7  H42        4.2767    1.1248  -10.6323 H       1  T_I1        0.0274
      8  H43        4.8783    2.5491   -9.7504 H       1  T_I1        0.0274
      9  C2         3.9243    1.1086   -7.3129 C.2     1  T_I1       -0.0881
     10  H2         3.1743    0.9610   -6.5640 H       1  T_I1        0.0569
     11  C3         5.4026    1.1308   -6.9221 C.3     1  T_I1       -0.0466
     12  H31        6.0013    1.2872   -7.7952 H       1  T_I1        0.0272
     13  H32        5.5761    1.9232   -6.2243 H       1  T_I1        0.0272
     14  H33        5.6673    0.1958   -6.4729 H       1  T_I1        0.0272
     15  C          1.1778    5.4960   -6.6286 C.3     1  T_I1       -0.0440
     16  HC1        2.2139    5.6298   -6.8603 H       1  T_I1        0.0274
     17  HC2        0.5916    6.1846   -7.2022 H       1  T_I1        0.0274
     18  HC3        1.0193    5.6773   -5.5855 H       1  T_I1        0.0274
     19  C1         0.7595    4.0637   -6.9675 C.2     1  T_I1       -0.0796
     20  C4        -0.6919    3.6083   -6.7270 C.3     1  T_I1       -0.0440
     21  H41       -0.7017    2.5507   -6.4590 H       1  T_I1        0.0274
     22  H42       -1.1263    4.1915   -5.9147 H       1  T_I1        0.0274
     23  H43       -1.2755    3.7581   -7.6346 H       1  T_I1        0.0274
     24  C2         1.6559    3.2064   -7.4740 C.2     1  T_I1       -0.0850
     25  H2         2.6640    3.5229   -7.6408 H       1  T_I1        0.0572
     26  C3         1.2380    1.7740   -7.8120 C.3     1  T_I1       -0.0308
     27  H31        1.3876    1.1474   -6.9576 H       1  T_I1        0.0310
     28  H32        0.2042    1.7594   -8.0874 H       1  T_I1        0.0310
@<TRIPOS>BOND
     1     1     4    1
     2     1     2    1
     3     1     3    1
     4     1    26    1
     5     4     9    2
     6     4     5    1
     7     5     6    1
     8     5     7    1
     9     5     8    1
    10     9    11    1
    11     9    10    1
    12    11    12    1
    13    11    13    1
    14    11    14    1
    15    15    19    1
    16    15    16    1
    17    15    17    1
    18    15    18    1
    19    19    24    2
    20    19    20    1
    21    20    21    1
    22    20    22    1
    23    20    23    1
    24    24    26    1
    25    24    25    1
    26    26    27    1
    27    26    28    1
@<TRIPOS>MOLECULE
/home/jramos/Programacion/GITHUB_REPO_DIR/gecos2/data/IsoP.pdb
 28 27 0 0 0
SMALL
GASTEIGER

@<TRIPOS>ATOM
      1  C1         2.0880    1.2530   -8.9850 C.3     1  T_I1       -0.0286
      2  HC1        1.7950    0.2510   -9.2200 H       1  T_I1        0.0313
      3  HC3        1.9360    1.8780   -9.8400 H       1  T_I1        0.0313
      4  C1         3.5670    1.2740   -8.5940 C.2     1  T_I1       -0.0765
      5  C4         4.6360    0.8002   -9.5968 C.3     1  T_I1       -0.0438
      6  H41        5.4646    0.3434   -9.0560 H       1  T_I1        0.0274
      7  H42        4.1977    0.0692  -10.2767 H       1  T_I1        0.0274
      8  H43        5.0016    1.6536  -10.1689 H       1  T_I1        0.0274
      9  C2         3.9334    1.7056   -7.3792 C.2     1  T_I1       -0.0881
     10  H2         3.1904    2.0346   -6.6828 H       1  T_I1        0.0569
     11  C3         5.4119    1.7276   -6.9889 C.3     1  T_I1       -0.0466
     12  H31        6.0026    1.3652   -7.8043 H       1  T_I1        0.0272
     13  H32        5.7047    2.7296   -6.7542 H       1  T_I1        0.0272
     14  H33        5.5648    1.1018   -6.1339 H       1  T_I1        0.0272
     15  C         -2.4624    0.6470   -8.3549 C.3     1  T_I1       -0.0440
     16  HC1       -2.7252    1.5826   -8.8028 H       1  T_I1        0.0274
     17  HC2       -2.6372   -0.1454   -9.0538 H       1  T_I1        0.0274
     18  HC3       -3.0609    0.4890   -7.4815 H       1  T_I1        0.0274
     19  C1        -0.9831    0.6656   -7.9639 C.2     1  T_I1       -0.0796
     20  C4        -0.3479   -0.5679   -7.2956 C.3     1  T_I1       -0.0440
     21  H41        0.4301   -0.2458   -6.6019 H       1  T_I1        0.0274
     22  H42       -1.1131   -1.1206   -6.7500 H       1  T_I1        0.0274
     23  H43        0.0898   -1.2104   -8.0588 H       1  T_I1        0.0274
     24  C2        -0.2408    1.7549   -8.2037 C.2     1  T_I1       -0.0850
     25  H2        -0.6823    2.6117   -8.6678 H       1  T_I1        0.0572
     26  C3         1.2380    1.7740   -7.8120 C.3     1  T_I1       -0.0308
     27  H31        1.5320    2.7755   -7.5761 H       1  T_I1        0.0310
     28  H32        1.3889    1.1482   -6.9574 H       1  T_I1        0.0310
@<TRIPOS>BOND
     1     1     4    1
     2     1     2    1
     3     1     3    1
     4     1    26    1
     5     4     9    2
     6     4     5    1
     7     5     6    1
     8     5     7    1
     9     5     8    1
    10     9    11    1
    11     9    10    1
    12    11    12    1
    13    11    13    1
    14    11    14    1
    15    15    19    1
    16    15    16    1
    17    15    17    1
    18    15    18    1
    19    19    24    2
    20    19    20    1
    21    20    21    1
    22    20    22    1
    23    20    23    1
    24    24    26    1
    25    24    25    1
    26    26    27    1
    27    26    28    1
@<TRIPOS>MOLECULE
/home/jramos/Programacion/GITHUB_REPO_DIR/gecos2/data/IsoP.pdb
 28 27 0 0 0
SMALL
GASTEIGER

@<TRIPOS>ATOM
      1  C1         2.0880    1.2530   -8.9850 C.3     1  T_I1       -0.0286
      2  HC1        1.7950    0.2510   -9.2200 H       1  T_I1        0.0313
      3  HC3        1.9360    1.8780   -9.8400 H       1  T_I1        0.0313
      4  C1         3.5670    1.2740   -8.5940 C.2     1  T_I1       -0.0765
      5  C4         3.9879    1.7690   -7.1973 C.3     1  T_I1       -0.0438
      6  H41        4.9630    2.2513   -7.2613 H       1  T_I1        0.0274
      7  H42        3.2517    2.4833   -6.8279 H       1  T_I1        0.0274
      8  H43        4.0456    0.9216   -6.5133 H       1  T_I1        0.0274
      9  C2         4.4971    0.8608   -9.4661 C.2     1  T_I1       -0.0881
     10  H2         4.2043    0.5171  -10.4363 H       1  T_I1        0.0569
     11  C3         5.9753    0.8808   -9.0747 C.3     1  T_I1       -0.0466
     12  H31        6.0762    1.2531   -8.0765 H       1  T_I1        0.0272
     13  H32        6.3723   -0.1114   -9.1270 H       1  T_I1        0.0272
     14  H33        6.5141    1.5164   -9.7468 H       1  T_I1        0.0272
     15  C         -2.4624    0.6470   -8.3549 C.3     1  T_I1       -0.0440
     16  HC1       -2.7252    1.5826   -8.8028 H       1  T_I1        0.0274
     17  HC2       -2.6372   -0.1454   -9.0538 H       1  T_I1        0.0274
     18  HC3       -3.0609    0.4890   -7.4815 H       1  T_I1        0.0274
     19  C1        -0.9831    0.6656   -7.9639 C.2     1  T_I1       -0.0796
     20  C4        -0.3479   -0.5679   -7.2956 C.3     1  T_I1       -0.0440
     21  H41        0.4301   -0.2458   -6.6019 H       1  T_I1        0.0274
     22  H42       -1.1131   -1.1206   -6.7500 H       1  T_I1        0.0274
     23  H43        0.0898   -1.2104   -8.0588 H       1  T_I1        0.0274
     24  C2        -0.2408    1.7549   -8.2037 C.2     1  T_I1       -0.0850
     25  H2        -0.6823    2.6117   -8.6678 H       1  T_I1        0.0572
     26  C3         1.2380    1.7740   -7.8120 C.3     1  T_I1       -0.0308
     27  H31        1.5320    2.7755   -7.5761 H       1  T_I1        0.0310
     28  H32        1.3889    1.1482   -6.9574 H       1  T_I1        0.0310
@<TRIPOS>BOND
     1     1     4    1
     2     1     2    1
     3     1     3    1
     4     1    26    1
     5     4     9    2
     6     4     5    1
     7     5     6    1
     8     5     7    1
     9     5     8    1
    10     9    11    1
    11     9    10    1
    12    11    12    1
    13    11    13    1
    14    11    14    1
    15    15    19    1
    16    15    16    1
    17    15    17    1
    18    15    18    1
    19    19    24    2
    20    19    20    1
    21    20    21    1
    22    20    22    1
    23    20    23    1
    24    24    26    1
    25    24    25    1
    26    26    27    1
    27    26    28    1
@<TRIPOS>MOLECULE
/home/jramos/Programacion/GITHUB_REPO_DIR/gecos2/data/IsoP.pdb
 28 27 0 0 0
SMALL
GASTEIGER

@<TRIPOS>ATOM
      1  C1         2.0880    1.2530   -8.9850 C.3     1  T_I1       -0.0286
      2  HC1        1.7950    0.2510   -9.2200 H       1  T_I1        0.0313
      3  HC3        1.9360    1.8780   -9.8400 H       1  T_I1        0.0313
      4  C1         3.5670    1.2740   -8.5940 C.2     1  T_I1       -0.0765
      5  C4         4.6463    1.4864   -9.6724 C.3     1  T_I1       -0.0438
      6  H41        5.5467    0.9370   -9.3986 H       1  T_I1        0.0274
      7  H42        4.2767    1.1248  -10.6323 H       1  T_I1        0.0274
      8  H43        4.8783    2.5491   -9.7504 H       1  T_I1        0.0274
      9  C2         3.9243    1.1086   -7.3129 C.2     1  T_I1       -0.0881
     10  H2         3.1743    0.9610   -6.5640 H       1  T_I1        0.0569
     11  C3         5.4026    1.1308   -6.9221 C.3     1  T_I1       -0.0466
     12  H31        6.0013    1.2872   -7.7952 H       1  T_I1        0.0272
     13  H32        5.5761    1.9232   -6.2243 H       1  T_I1        0.0272
     14  H33        5.6673    0.1958   -6.4729 H       1  T_I1        0.0272
     15  C          1.4699    5.6725   -7.7375 C.3     1  T_I1       -0.0440
     16  HC1        2.2502    5.6535   -7.0055 H       1  T_I1        0.0274
     17  HC2        1.8225    6.1607   -8.6231 H       1  T_I1        0.0274
     18  HC3        0.6283    6.2073   -7.3480 H       1  T_I1        0.0274
     19  C1         1.0525    4.2398   -8.0764 C.2     1  T_I1       -0.0796
     20  C4        -0.0605    3.9864   -9.1102 C.3     1  T_I1       -0.0440
     21  H41       -0.6125    3.0859   -8.8372 H       1  T_I1        0.0274
     22  H42       -0.7418    4.8374   -9.1272 H       1  T_I1        0.0274
     23  H43        0.3823    3.8555  -10.0969 H       1  T_I1        0.0274
     24  C2         1.6559    3.2064   -7.4740 C.2     1  T_I1       -0.0850
     25  H2         2.4288    3.3827   -6.7558 H       1  T_I1        0.0572
     26  C3         1.2380    1.7740   -7.8120 C.3     1  T_I1       -0.0308
     27  H31        1.3876    1.1474   -6.9576 H       1  T_I1        0.0310
     28  H32        0.2042    1.7594   -8.0874 H       1  T_I1        0.0310
@<TRIPOS>BOND
     1     1     4    1
     2     1     2    1
     3     1     3    1
     4     1    26    1
     5     4     9    2
     6     4     5    1
     7     5     6    1
     8     5     7    1
     9     5     8    1
    10     9    11    1
    11     9    10    1
    12    11    12    1
    13    11    13    1
    14    11    14    1
    15    15    19    1
    16    15    16    1
    17    15    17    1
    18    15    18    1
    19    19    24    2
    20    19    20    1
    21    20    21    1
    22    20    22    1
    23    20    23    1
    24    24    26    1
    25    24    25    1
    26    26    27    1
    27    26    28    1
@<TRIPOS>MOLECULE
/home/jramos/Programacion/GITHUB_REPO_DIR/gecos2/data/IsoP.pdb
 28 27 0 0 0
SMALL
GASTEIGER

@<TRIPOS>ATOM
      1  C1         2.0880    1.2530   -8.9850 C.3     1  T_I1       -0.0286
      2  HC1        1.7950    0.2510   -9.2200 H       1  T_I1        0.0313
      3  HC3        1.9360    1.8780   -9.8400 H       1  T_I1        0.0313
      4  C1         3.5670    1.2740   -8.5940 C.2     1  T_I1       -0.0765
      5  C4         4.0570    0.4506   -7.3878 C.3     1  T_I1       -0.0438
      6  H41        4.8880    0.9676   -6.9083 H       1  T_I1        0.0274
      7  H42        3.2415    0.3315   -6.6740 H       1  T_I1        0.0274
      8  H43        4.3873   -0.5314   -7.7279 H       1  T_I1        0.0274
      9  C2         4.4373    2.0080   -9.3013 C.2     1  T_I1       -0.0881
     10  H2         4.0964    2.5799  -10.1391 H       1  T_I1        0.0569
     11  C3         5.9157    2.0279   -8.9111 C.3     1  T_I1       -0.0466
     12  H31        6.0686    1.4031   -8.0558 H       1  T_I1        0.0272
     13  H32        6.5057    1.6659   -9.7269 H       1  T_I1        0.0272
     14  H33        6.2094    3.0301   -8.6757 H       1  T_I1        0.0272
     15  C          2.5425    4.9295   -5.9150 C.3     1  T_I1       -0.0440
     16  HC1        2.3934    5.5560   -6.7696 H       1  T_I1        0.0274
     17  HC2        1.9510    5.2917   -5.0989 H       1  T_I1        0.0274
     18  HC3        3.5765    4.9436   -5.6382 H       1  T_I1        0.0274
     19  C1         2.1236    3.4970   -6.2526 C.2     1  T_I1       -0.0796
     20  C4         2.2392    2.3900   -5.1882 C.3     1  T_I1       -0.0440
     21  H41        2.4687    1.4405   -5.6741 H       1  T_I1        0.0274
     22  H42        3.0366    2.6403   -4.4881 H       1  T_I1        0.0274
     23  H43        1.2963    2.3034   -4.6494 H       1  T_I1        0.0274
     24  C2         1.6559    3.2064   -7.4740 C.2     1  T_I1       -0.0850
     25  H2         1.5759    3.9754   -8.2132 H       1  T_I1        0.0572
     26  C3         1.2380    1.7740   -7.8120 C.3     1  T_I1       -0.0308
     27  H31        1.3876    1.1474   -6.9576 H       1  T_I1        0.0310
     28  H32        0.2042    1.7594   -8.0874 H       1  T_I1        0.0310
@<TRIPOS>BOND
     1     1     4    1
     2     1     2    1
     3     1     3    1
     4     1    26    1
     5     4     9    2
     6     4     5    1
     7     5     6    1
     8     5     7    1
     9     5     8    1
    10     9    11    1
    11     9    10    1
    12    11    12    1
    13    11    13    1
    14    11    14    1
    15    15    19    1
    16    15    16    1
    17    15    17    1
    18    15    18    1
    19    19    24    2
    20    19    20    1
    21    20    21    1
    22    20    22    1
    23    20    23    1
    24    24    26    1
    25    24    25    1
    26    26    27    1
    27    26    28    1
@<TRIPOS>MOLECULE
/home/jramos/Programacion/GITHUB_REPO_DIR/gecos2/data/IsoP.pdb
 28 27 0 0 0
SMALL
GASTEIGER

@<TRIPOS>ATOM
      1  C1         2.0880    1.2530   -8.9850 C.3     1  T_I1       -0.0286
      2  HC1        1.7950    0.2510   -9.2200 H       1  T_I1        0.0313
      3  HC3        1.9360    1.8780   -9.8400 H       1  T_I1        0.0313
      4  C1         3.5670    1.2740   -8.5940 C.2     1  T_I1       -0.0765
      5  C4         4.0570    0.4506   -7.3878 C.3     1  T_I1       -0.0438
      6  H41        4.8880    0.9676   -6.9083 H       1  T_I1        0.0274
      7  H42        3.2415    0.3315   -6.6740 H       1  T_I1        0.0274
      8  H43        4.3873   -0.5314   -7.7279 H       1  T_I1        0.0274
      9  C2         4.4373    2.0080   -9.3013 C.2     1  T_I1       -0.0881
     10  H2         4.0964    2.5799  -10.1391 H       1  T_I1        0.0569
     11  C3         5.9157    2.0279   -8.9111 C.3     1  T_I1       -0.0466
     12  H31        6.0686    1.4031   -8.0558 H       1  T_I1        0.0272
     13  H32        6.5057    1.6659   -9.7269 H       1  T_I1        0.0272
     14  H33        6.2094    3.0301   -8.6757 H       1  T_I1        0.0272
     15  C          1.9711    5.6026   -8.0610 C.3     1  T_I1       -0.0440
     16  HC1        2.3152    5.6447   -7.0486 H       1  T_I1        0.0274
     17  HC2        2.7581    5.9104   -8.7189 H       1  T_I1        0.0274
     18  HC3        1.1321    6.2566   -8.1801 H       1  T_I1        0.0274
     19  C1         1.5540    4.1698   -8.3995 C.2     1  T_I1       -0.0796
     20  C4         1.0179    3.8355   -9.8040 C.3     1  T_I1       -0.0440
     21  H41        0.2784    3.0368   -9.7306 H       1  T_I1        0.0274
     22  H42        0.5521    4.7215  -10.2359 H       1  T_I1        0.0274
     23  H43        1.8408    3.5109  -10.4398 H       1  T_I1        0.0274
     24  C2         1.6559    3.2064   -7.4740 C.2     1  T_I1       -0.0850
     25  H2         2.0281    3.4388   -6.4984 H       1  T_I1        0.0572
     26  C3         1.2380    1.7740   -7.8120 C.3     1  T_I1       -0.0308
     27  H31        1.3876    1.1474   -6.9576 H       1  T_I1        0.0310
     28  H32        0.2042    1.7594   -8.0874 H       1  T_I1        0.0310
@<TRIPOS>BOND
     1     1     4    1
     2     1     2    1
     3     1     3    1
     4     1    26    1
     5     4     9    2
     6     4     5    1
     7     5     6    1
     8     5     7    1
     9     5     8    1
    10     9    11    1
    11     9    10    1
    12    11    12    1
    13    11    13    1
    14    11    14    1
    15    15    19    1
    16    15    16    1
    17    15    17    1
    18    15    18    1
    19    19    24    2
    20    19    20    1
    21    20    21    1
    22    20    22    1
    23    20    23    1
    24    24    26    1
    25    24    25    1
    26    26    27    1
    27    26    28    1
@<TRIPOS>MOLECULE
/home/jramos/Programacion/GITHUB_REPO_DIR/gecos2/data/IsoP.pdb
 28 27 0 0 0
SMALL
GASTEIGER

@<TRIPOS>ATOM
      1  C1         2.0880    1.2530   -8.9850 C.3     1  T_I1       -0.0286
      2  HC1        1.7950    0.2510   -9.2200 H       1  T_I1        0.0313
      3  HC3        1.9360    1.8780   -9.8400 H       1  T_I1        0.0313
      4  C1         3.5670    1.2740   -8.5940 C.2     1  T_I1       -0.0765
      5  C4         4.4193    2.5272   -8.8698 C.3     1  T_I1       -0.0438
      6  H41        5.4453    2.2290   -9.0843 H       1  T_I1        0.0274
      7  H42        4.0095    3.0641   -9.7256 H       1  T_I1        0.0274
      8  H43        4.4050    3.1766   -7.9939 H       1  T_I1        0.0274
      9  C2         4.1216    0.2025   -8.0104 C.2     1  T_I1       -0.0881
     10  H2         3.5292   -0.6679   -7.8191 H       1  T_I1        0.0569
     11  C3         5.5997    0.2241   -7.6186 C.3     1  T_I1       -0.0466
     12  H31        6.0270    1.1682   -7.8857 H       1  T_I1        0.0272
     13  H32        5.6918    0.0769   -6.5629 H       1  T_I1        0.0272
     14  H33        6.1172   -0.5585   -8.1343 H       1  T_I1        0.0272
     15  C          1.9711    5.6026   -8.0610 C.3     1  T_I1       -0.0440
     16  HC1        2.3152    5.6447   -7.0486 H       1  T_I1        0.0274
     17  HC2        2.7581    5.9104   -8.7189 H       1  T_I1        0.0274
     18  HC3        1.1321    6.2566   -8.1801 H       1  T_I1        0.0274
     19  C1         1.5540    4.1698   -8.3995 C.2     1  T_I1       -0.0796
     20  C4         1.0179    3.8355   -9.8040 C.3     1  T_I1       -0.0440
     21  H41        0.2784    3.0368   -9.7306 H       1  T_I1        0.0274
     22  H42        0.5521    4.7215  -10.2359 H       1  T_I1        0.0274
     23  H43        1.8408    3.5109  -10.4398 H       1  T_I1        0.0274
     24  C2         1.6559    3.2064   -7.4740 C.2     1  T_I1       -0.0850
     25  H2         2.0281    3.4388   -6.4984 H       1  T_I1        0.0572
     26  C3         1.2380    1.7740   -7.8120 C.3     1  T_I1       -0.0308
     27  H31        1.3876    1.1474   -6.9576 H       1  T_I1        0.0310
     28  H32        0.2042    1.7594   -8.0874 H       1  T_I1        0.0310
@<TRIPOS>BOND
     1     1     4    1
     2     1     2    1
     3     1     3    1
     4     1    26    1
     5     4     9    2
     6     4     5    1
     7     5     6    1
     8     5     7    1
     9     5     8    1
    10     9    11    1
    11     9    10    1
    12    11    12    1
    13    11    13    1
    14    11    14    1
    15    15    19    1
    16    15    16    1
    17    15    17    1
    18    15    18    1
    19    19    24    2
    20    19    20    1
    21    20    21    1
    22    20    22    1
    23    20    23    1
    24    24    26    1
    25    24    25    1
    26    26    27    1
    27    26    28    1
@<TRIPOS>MOLECULE
/home/jramos/Programacion/GITHUB_REPO_DIR/gecos2/data/IsoP.pdb
 28 27 0 0 0
SMALL
GASTEIGER

@<TRIPOS>ATOM
      1  C1         2.0880    1.2530   -8.9850 C.3     1  T_I1       -0.0286
      2  HC1        1.7950    0.2510   -9.2200 H       1  T_I1        0.0313
      3  HC3        1.9360    1.8780   -9.8400 H       1  T_I1        0.0313
      4  C1         3.5670    1.2740   -8.5940 C.2     1  T_I1       -0.0765
      5  C4         4.6360    0.8002   -9.5968 C.3     1  T_I1       -0.0438
      6  H41        5.4646    0.3434   -9.0560 H       1  T_I1        0.0274
      7  H42        4.1977    0.0692  -10.2767 H       1  T_I1        0.0274
      8  H43        5.0016    1.6536  -10.1689 H       1  T_I1        0.0274
      9  C2         3.9334    1.7056   -7.3792 C.2     1  T_I1       -0.0881
     10  H2         3.1904    2.0346   -6.6828 H       1  T_I1        0.0569
     11  C3         5.4119    1.7276   -6.9889 C.3     1  T_I1       -0.0466
     12  H31        6.0026    1.3652   -7.8043 H       1  T_I1        0.0272
     13  H32        5.7047    2.7296   -6.7542 H       1  T_I1        0.0272
     14  H33        5.5648    1.1018   -6.1339 H       1  T_I1        0.0272
     15  C          1.0205    0.2514   -4.2215 C.3     1  T_I1       -0.0440
     16  HC1        1.7105   -0.5292   -4.4658 H       1  T_I1        0.0274
     17  HC2        1.4137    0.8363   -3.4151 H       1  T_I1        0.0274
     18  HC3        0.0856   -0.1783   -3.9259 H       1  T_I1        0.0274
     19  C1         0.8076    1.1461   -5.4445 C.2     1  T_I1       -0.0796
     20  C4        -0.1460    2.3523   -5.3592 C.3     1  T_I1       -0.0440
     21  H41       -0.6206    2.5102   -6.3288 H       1  T_I1        0.0274
     22  H42       -0.9124    2.1579   -4.6085 H       1  T_I1        0.0274
     23  H43        0.4172    3.2426   -5.0816 H       1  T_I1        0.0274
     24  C2         1.4515    0.8801   -6.5888 C.2     1  T_I1       -0.0850
     25  H2         2.1137    0.0421   -6.6479 H       1  T_I1        0.0572
     26  C3         1.2380    1.7740   -7.8120 C.3     1  T_I1       -0.0308
     27  H31        0.2041    1.7610   -8.0877 H       1  T_I1        0.0310
     28  H32        1.5311    2.7759   -7.5773 H       1  T_I1        0.0310
@<TRIPOS>BOND
     1     1     4    1
     2     1     2    1
     3     1     3    1
     4     1    26    1
     5     4     9    2
     6     4     5    1
     7     5     6    1
     8     5     7    1
     9     5     8    1
    10     9    11    1
    11     9    10    1
    12    11    12    1
    13    11    13    1
    14    11    14    1
    15    15    19    1
    16    15    16    1
    17    15    17    1
    18    15    18    1
    19    19    24    2
    20    19    20    1
    21    20    21    1
    22    20    22    1
    23    20    23    1
    24    24    26    1
    25    24    25    1
    26    26    27    1
    27    26    28    1
@<TRIPOS>MOLECULE
/home/jramos/Programacion/GITHUB_REPO_DIR/gecos2/data/IsoP.pdb
 28 27 0 0 0
SMALL
GASTEIGER

@<TRIPOS>ATOM
      1  C1         2.0880    1.2530   -8.9850 C.3     1  T_I1       -0.0286
      2  HC1        1.7950    0.2510   -9.2200 H       1  T_I1        0.0313
      3  HC3        1.9360    1.8780   -9.8400 H       1  T_I1        0.0313
      4  C1         3.5670    1.2740   -8.5940 C.2     1  T_I1       -0.0765
      5  C4         4.3810   -0.0338   -8.5876 C.3     1  T_I1       -0.0438
      6  H41        5.1387    0.0136   -7.8057 H       1  T_I1        0.0274
      7  H42        3.7145   -0.8756   -8.3984 H       1  T_I1        0.0274
      8  H43        4.8653   -0.1654   -9.5557 H       1  T_I1        0.0274
      9  C2         4.1554    2.4303   -8.2578 C.2     1  T_I1       -0.0881
     10  H2         3.5895    3.3386   -8.2624 H       1  T_I1        0.0569
     11  C3         5.6340    2.4513   -7.8682 C.3     1  T_I1       -0.0466
     12  H31        6.0318    1.4592   -7.9197 H       1  T_I1        0.0272
     13  H32        6.1719    3.0864   -8.5406 H       1  T_I1        0.0272
     14  H33        5.7348    2.8228   -6.8692 H       1  T_I1        0.0272
     15  C          1.4699    5.6725   -7.7375 C.3     1  T_I1       -0.0440
     16  HC1        2.2502    5.6535   -7.0055 H       1  T_I1        0.0274
     17  HC2        1.8225    6.1607   -8.6231 H       1  T_I1        0.0274
     18  HC3        0.6283    6.2073   -7.3480 H       1  T_I1        0.0274
     19  C1         1.0525    4.2398   -8.0764 C.2     1  T_I1       -0.0796
     20  C4        -0.0605    3.9864   -9.1102 C.3     1  T_I1       -0.0440
     21  H41       -0.6125    3.0859   -8.8372 H       1  T_I1        0.0274
     22  H42       -0.7418    4.8374   -9.1272 H       1  T_I1        0.0274
     23  H43        0.3823    3.8555  -10.0969 H       1  T_I1        0.0274
     24  C2         1.6559    3.2064   -7.4740 C.2     1  T_I1       -0.0850
     25  H2         2.4288    3.3827   -6.7558 H       1  T_I1        0.0572
     26  C3         1.2380    1.7740   -7.8120 C.3     1  T_I1       -0.0308
     27  H31        1.3876    1.1474   -6.9576 H       1  T_I1        0.0310
     28  H32        0.2042    1.7594   -8.0874 H       1  T_I1        0.0310
@<TRIPOS>BOND
     1     1     4    1
     2     1     2    1
     3     1     3    1
     4     1    26    1
     5     4     9    2
     6     4     5    1
     7     5     6    1
     8     5     7    1
     9     5     8    1
    10     9    11    1
    11     9    10    1
    12    11    12    1
    13    11    13    1
    14    11    14    1
    15    15    19    1
    16    15    16    1
    17    15    17    1
    18    15    18    1
    19    19    24    2
    20    19    20    1
    21    20    21    1
    22    20    22    1
    23    20    23    1
    24    24    26    1
    25    24    25    1
    26    26    27    1
    27    26    28    1
@<TRIPOS>MOLECULE
/home/jramos/Programacion/GITHUB_REPO_DIR/gecos2/data/IsoP.pdb
 28 27 0 0 0
SMALL
GASTEIGER

@<TRIPOS>ATOM
      1  C1         2.0880    1.2530   -8.9850 C.3     1  T_I1       -0.0286
      2  HC1        1.7950    0.2510   -9.2200 H       1  T_I1        0.0313
      3  HC3        1.9360    1.8780   -9.8400 H       1  T_I1        0.0313
      4  C1         3.5670    1.2740   -8.5940 C.2     1  T_I1       -0.0765
      5  C4         4.6360    0.8002   -9.5968 C.3     1  T_I1       -0.0438
      6  H41        5.4646    0.3434   -9.0560 H       1  T_I1        0.0274
      7  H42        4.1977    0.0692  -10.2767 H       1  T_I1        0.0274
      8  H43        5.0016    1.6536  -10.1689 H       1  T_I1        0.0274
      9  C2         3.9334    1.7056   -7.3792 C.2     1  T_I1       -0.0881
     10  H2         3.1904    2.0346   -6.6828 H       1  T_I1        0.0569
     11  C3         5.4119    1.7276   -6.9889 C.3     1  T_I1       -0.0466
     12  H31        6.0026    1.3652   -7.8043 H       1  T_I1        0.0272
     13  H32        5.7047    2.7296   -6.7542 H       1  T_I1        0.0272
     14  H33        5.5648    1.1018   -6.1339 H       1  T_I1        0.0272
     15  C          1.9647    5.0896   -5.8790 C.3     1  T_I1       -0.0440
     16  HC1        2.3180    5.5767   -6.7639 H       1  T_I1        0.0274
     17  HC2        1.1236    5.6249   -5.4881 H       1  T_I1        0.0274
     18  HC3        2.7452    5.0702   -5.1466 H       1  T_I1        0.0274
     19  C1         1.5458    3.6572   -6.2171 C.2     1  T_I1       -0.0796
     20  C4         0.9972    2.7346   -5.1128 C.3     1  T_I1       -0.0440
     21  H41        1.2843    1.7035   -5.3242 H       1  T_I1        0.0274
     22  H42        1.4099    3.0350   -4.1495 H       1  T_I1        0.0274
     23  H43       -0.0892    2.8097   -5.0823 H       1  T_I1        0.0274
     24  C2         1.6559    3.2064   -7.4740 C.2     1  T_I1       -0.0850
     25  H2         2.0372    3.8474   -8.2409 H       1  T_I1        0.0572
     26  C3         1.2380    1.7740   -7.8120 C.3     1  T_I1       -0.0308
     27  H31        1.3876    1.1474   -6.9576 H       1  T_I1        0.0310
     28  H32        0.2042    1.7594   -8.0874 H       1  T_I1        0.0310
@<TRIPOS>BOND
     1     1     4    1
     2     1     2    1
     3     1     3    1
     4     1    26    1
     5     4     9    2
     6     4     5    1
     7     5     6    1
     8     5     7    1
     9     5     8    1
    10     9    11    1
    11     9    10    1
    12    11    12    1
    13    11    13    1
    14    11    14    1
    15    15    19    1
    16    15    16    1
    17    15    17    1
    18    15    18    1
    19    19    24    2
    20    19    20    1
    21    20    21    1
    22    20    22    1
    23    20    23    1
    24    24    26    1
    25    24    25    1
    26    26    27    1
    27    26    28    1
@<TRIPOS>MOLECULE
/home/jramos/Programacion/GITHUB_REPO_DIR/gecos2/data/IsoP.pdb
 28 27 0 0 0
SMALL
GASTEIGER

@<TRIPOS>ATOM
      1  C1         2.0880    1.2530   -8.9850 C.3     1  T_I1       -0.0286
      2  HC1        1.7950    0.2510   -9.2200 H       1  T_I1        0.0313
      3  HC3        1.9360    1.8780   -9.8400 H       1  T_I1        0.0313
      4  C1         3.5670    1.2740   -8.5940 C.2     1  T_I1       -0.0765
      5  C4         4.2046    0.0419   -7.9243 C.3     1  T_I1       -0.0438
      6  H41        4.9823    0.3658   -7.2330 H       1  T_I1        0.0274
      7  H42        3.4399   -0.5116   -7.3790 H       1  T_I1        0.0274
      8  H43        4.6422   -0.6015   -8.6883 H       1  T_I1        0.0274
      9  C2         4.3089    2.3639   -8.8348 C.2     1  T_I1       -0.0881
     10  H2         3.8655    3.2197   -9.2999 H       1  T_I1        0.0569
     11  C3         5.7875    2.3843   -8.4450 C.3     1  T_I1       -0.0466
     12  H31        6.0519    1.4501   -7.9951 H       1  T_I1        0.0272
     13  H32        6.3853    2.5412   -9.3184 H       1  T_I1        0.0272
     14  H33        5.9617    3.1767   -7.7464 H       1  T_I1        0.0272
     15  C          2.6391    0.2697   -4.4906 C.3     1  T_I1       -0.0440
     16  HC1        1.9220   -0.5246   -4.4993 H       1  T_I1        0.0274
     17  HC2        3.6277   -0.1412   -4.5159 H       1  T_I1        0.0274
     18  HC3        2.5180    0.8499   -3.5991 H       1  T_I1        0.0274
     19  C1         2.4262    1.1633   -5.7144 C.2     1  T_I1       -0.0796
     20  C4         3.3330    2.3873   -5.9409 C.3     1  T_I1       -0.0440
     21  H41        2.7624    3.1769   -6.4320 H       1  T_I1        0.0274
     22  H42        3.7008    2.7502   -4.9809 H       1  T_I1        0.0274
     23  H43        4.1763    2.1041   -6.5698 H       1  T_I1        0.0274
     24  C2         1.4515    0.8801   -6.5888 C.2     1  T_I1       -0.0850
     25  H2         0.8217    0.0299   -6.4313 H       1  T_I1        0.0572
     26  C3         1.2380    1.7740   -7.8120 C.3     1  T_I1       -0.0308
     27  H31        0.2041    1.7610   -8.0877 H       1  T_I1        0.0310
     28  H32        1.5311    2.7759   -7.5773 H       1  T_I1        0.0310
@<TRIPOS>BOND
     1     1     4    1
     2     1     2    1
     3     1     3    1
     4     1    26    1
     5     4     9    2
     6     4     5    1
     7     5     6    1
     8     5     7    1
     9     5     8    1
    10     9    11    1
    11     9    10    1
    12    11    12    1
    13    11    13    1
    14    11    14    1
    15    15    19    1
    16    15    16    1
    17    15    17    1
    18    15    18    1
    19    19    24    2
    20    19    20    1
    21    20    21    1
    22    20    22    1
    23    20    23    1
    24    24    26    1
    25    24    25    1
    26    26    27    1
    27    26    28    1
@<TRIPOS>MOLECULE
/home/jramos/Programacion/GITHUB_REPO_DIR/gecos2/data/IsoP.pdb
 28 27 0 0 0
SMALL
GASTEIGER

@<TRIPOS>ATOM
      1  C1         2.0880    1.2530   -8.9850 C.3     1  T_I1       -0.0286
      2  HC1        1.7950    0.2510   -9.2200 H       1  T_I1        0.0313
      3  HC3        1.9360    1.8780   -9.8400 H       1  T_I1        0.0313
      4  C1         3.5670    1.2740   -8.5940 C.2     1  T_I1       -0.0765
      5  C4         3.9879    1.7690   -7.1973 C.3     1  T_I1       -0.0438
      6  H41        4.9630    2.2513   -7.2613 H       1  T_I1        0.0274
      7  H42        3.2517    2.4833   -6.8279 H       1  T_I1        0.0274
      8  H43        4.0456    0.9216   -6.5133 H       1  T_I1        0.0274
      9  C2         4.4971    0.8608   -9.4661 C.2     1  T_I1       -0.0881
     10  H2         4.2043    0.5171  -10.4363 H       1  T_I1        0.0569
     11  C3         5.9753    0.8808   -9.0747 C.3     1  T_I1       -0.0466
     12  H31        6.0762    1.2531   -8.0765 H       1  T_I1        0.0272
     13  H32        6.3723   -0.1114   -9.1270 H       1  T_I1        0.0272
     14  H33        6.5141    1.5164   -9.7468 H       1  T_I1        0.0272
     15  C          0.6791   -0.1740   -4.4728 C.3     1  T_I1       -0.0440
     16  HC1        1.6667   -0.5852   -4.4990 H       1  T_I1        0.0274
     17  HC2        0.5569    0.4054   -3.5804 H       1  T_I1        0.0274
     18  HC3       -0.0385   -0.9684   -4.4817 H       1  T_I1        0.0274
     19  C1         0.4658    0.7208   -5.6956 C.2     1  T_I1       -0.0796
     20  C4        -0.8816    1.4385   -5.8986 C.3     1  T_I1       -0.0440
     21  H41       -1.0899    1.5263   -6.9659 H       1  T_I1        0.0274
     22  H42       -1.6755    0.8639   -5.4209 H       1  T_I1        0.0274
     23  H43       -0.8349    2.4325   -5.4551 H       1  T_I1        0.0274
     24  C2         1.4515    0.8801   -6.5888 C.2     1  T_I1       -0.0850
     25  H2         2.3872    0.3814   -6.4477 H       1  T_I1        0.0572
     26  C3         1.2380    1.7740   -7.8120 C.3     1  T_I1       -0.0308
     27  H31        0.2041    1.7610   -8.0877 H       1  T_I1        0.0310
     28  H32        1.5311    2.7759   -7.5773 H       1  T_I1        0.0310
@<TRIPOS>BOND
     1     1     4    1
     2     1     2    1
     3     1     3    1
     4     1    26    1
     5     4     9    2
     6     4     5    1
     7     5     6    1
     8     5     7    1
     9     5     8    1
    10     9    11    1
    11     9    10    1
    12    11    12    1
    13    11    13    1
    14    11    14    1
    15    15    19    1
    16    15    16    1
    17    15    17    1
    18    15    18    1
    19    19    24    2
    20    19    20    1
    21    20    21    1
    22    20    22    1
    23    20    23    1
    24    24    26    1
    25    24    25    1
    26    26    27    1
    27    26    28    1
@<TRIPOS>MOLECULE
/home/jramos/Programacion/GITHUB_REPO_DIR/gecos2/data/IsoP.pdb
 28 27 0 0 0
SMALL
GASTEIGER

@<TRIPOS>ATOM
      1  C1         2.0880    1.2530   -8.9850 C.3     1  T_I1       -0.0286
      2  HC1        1.7950    0.2510   -9.2200 H       1  T_I1        0.0313
      3  HC3        1.9360    1.8780   -9.8400 H       1  T_I1        0.0313
      4  C1         3.5670    1.2740   -8.5940 C.2     1  T_I1       -0.0765
      5  C4         4.4193    2.5272   -8.8698 C.3     1  T_I1       -0.0438
      6  H41        5.4453    2.2290   -9.0843 H       1  T_I1        0.0274
      7  H42        4.0095    3.0641   -9.7256 H       1  T_I1        0.0274
      8  H43        4.4050    3.1766   -7.9939 H       1  T_I1        0.0274
      9  C2         4.1216    0.2025   -8.0104 C.2     1  T_I1       -0.0881
     10  H2         3.5292   -0.6679   -7.8191 H       1  T_I1        0.0569
     11  C3         5.5997    0.2241   -7.6186 C.3     1  T_I1       -0.0466
     12  H31        6.0270    1.1682   -7.8857 H       1  T_I1        0.0272
     13  H32        5.6918    0.0769   -6.5629 H       1  T_I1        0.0272
     14  H33        6.1172   -0.5585   -8.1343 H       1  T_I1        0.0272
     15  C          2.6391    0.2697   -4.4906 C.3     1  T_I1       -0.0440
     16  HC1        1.9220   -0.5246   -4.4993 H       1  T_I1        0.0274
     17  HC2        3.6277   -0.1412   -4.5159 H       1  T_I1        0.0274
     18  HC3        2.5180    0.8499   -3.5991 H       1  T_I1        0.0274
     19  C1         2.4262    1.1633   -5.7144 C.2     1  T_I1       -0.0796
     20  C4         3.3330    2.3873   -5.9409 C.3     1  T_I1       -0.0440
     21  H41        2.7624    3.1769   -6.4320 H       1  T_I1        0.0274
     22  H42        3.7008    2.7502   -4.9809 H       1  T_I1        0.0274
     23  H43        4.1763    2.1041   -6.5698 H       1  T_I1        0.0274
     24  C2         1.4515    0.8801   -6.5888 C.2     1  T_I1       -0.0850
     25  H2         0.8217    0.0299   -6.4313 H       1  T_I1        0.0572
     26  C3         1.2380    1.7740   -7.8120 C.3     1  T_I1       -0.0308
     27  H31        0.2041    1.7610   -8.0877 H       1  T_I1        0.0310
     28  H32        1.5311    2.7759   -7.5773 H       1  T_I1        0.0310
@<TRIPOS>BOND
     1     1     4    1
     2     1     2    1
     3     1     3    1
     4     1    26    1
     5     4     9    2
     6     4     5    1
     7     5     6    1
     8     5     7    1
     9     5     8    1
    10     9    11    1
    11     9    10    1
    12    11    12    1
    13    11    13    1
    14    11    14    1
    15    15    19    1
    16    15    16    1
    17    15    17    1
    18    15    18    1
    19    19    24    2
    20    19    20    1
    21    20    21    1
    22    20    22    1
    23    20    23    1
    24    24    26    1
    25    24    25    1
    26    26    27    1
    27    26    28    1
@<TRIPOS>MOLECULE
/home/jramos/Programacion/GITHUB_REPO_DIR/gecos2/data/IsoP.pdb
 28 27 0 0 0
SMALL
GASTEIGER

@<TRIPOS>ATOM
      1  C1         2.0880    1.2530   -8.9850 C.3     1  T_I1       -0.0286
      2  HC1        1.7950    0.2510   -9.2200 H       1  T_I1        0.0313
      3  HC3        1.9360    1.8780   -9.8400 H       1  T_I1        0.0313
      4  C1         3.5670    1.2740   -8.5940 C.2     1  T_I1       -0.0765
      5  C4         4.2046    0.0419   -7.9243 C.3     1  T_I1       -0.0438
      6  H41        4.9823    0.3658   -7.2330 H       1  T_I1        0.0274
      7  H42        3.4399   -0.5116   -7.3790 H       1  T_I1        0.0274
      8  H43        4.6422   -0.6015   -8.6883 H       1  T_I1        0.0274
      9  C2         4.3089    2.3639   -8.8348 C.2     1  T_I1       -0.0881
     10  H2         3.8655    3.2197   -9.2999 H       1  T_I1        0.0569
     11  C3         5.7875    2.3843   -8.4450 C.3     1  T_I1       -0.0466
     12  H31        6.0519    1.4501   -7.9951 H       1  T_I1        0.0272
     13  H32        6.3853    2.5412   -9.3184 H       1  T_I1        0.0272
     14  H33        5.9617    3.1767   -7.7464 H       1  T_I1        0.0272
     15  C          3.0437    4.8596   -6.2384 C.3     1  T_I1       -0.0440
     16  HC1        2.4584    5.5472   -6.8126 H       1  T_I1        0.0274
     17  HC2        2.8865    5.0413   -5.1948 H       1  T_I1        0.0274
     18  HC3        4.0802    4.9930   -6.4703 H       1  T_I1        0.0274
     19  C1         2.6251    3.4269   -6.5757 C.2     1  T_I1       -0.0796
     20  C4         3.3176    2.2391   -5.8820 C.3     1  T_I1       -0.0440
     21  H41        3.3596    1.3914   -6.5675 H       1  T_I1        0.0274
     22  H42        4.3305    2.5244   -5.5968 H       1  T_I1        0.0274
     23  H43        2.7548    1.9588   -4.9923 H       1  T_I1        0.0274
     24  C2         1.6559    3.2064   -7.4740 C.2     1  T_I1       -0.0850
     25  H2         1.1751    4.0316   -7.9559 H       1  T_I1        0.0572
     26  C3         1.2380    1.7740   -7.8120 C.3     1  T_I1       -0.0308
     27  H31        1.3876    1.1474   -6.9576 H       1  T_I1        0.0310
     28  H32        0.2042    1.7594   -8.0874 H       1  T_I1        0.0310
@<TRIPOS>BOND
     1     1     4    1
     2     1     2    1
     3     1     3    1
     4     1    26    1
     5     4     9    2
     6     4     5    1
     7     5     6    1
     8     5     7    1
     9     5     8    1
    10     9    11    1
    11     9    10    1
    12    11    12    1
    13    11    13    1
    14    11    14    1
    15    15    19    1
    16    15    16    1
    17    15    17    1
    18    15    18    1
    19    19    24    2
    20    19    20    1
    21    20    21    1
    22    20    22    1
    23    20    23    1
    24    24    26    1
    25    24    25    1
    26    26    27    1
    27    26    28    1
@<TRIPOS>MOLECULE
/home/jramos/Programacion/GITHUB_REPO_DIR/gecos2/data/IsoP.pdb
 28 27 0 0 0
SMALL
GASTEIGER

@<TRIPOS>ATOM
      1  C1         2.0880    1.2530   -8.9850 C.3     1  T_I1       -0.0286
      2  HC1        1.7950    0.2510   -9.2200 H       1  T_I1        0.0313
      3  HC3        1.9360    1.8780   -9.8400 H       1  T_I1        0.0313
      4  C1         3.5670    1.2740   -8.5940 C.2     1  T_I1       -0.0765
      5  C4         3.9879    1.7690   -7.1973 C.3     1  T_I1       -0.0438
      6  H41        4.9630    2.2513   -7.2613 H       1  T_I1        0.0274
      7  H42        3.2517    2.4833   -6.8279 H       1  T_I1        0.0274
      8  H43        4.0456    0.9216   -6.5133 H       1  T_I1        0.0274
      9  C2         4.4971    0.8608   -9.4661 C.2     1  T_I1       -0.0881
     10  H2         4.2043    0.5171  -10.4363 H       1  T_I1        0.0569
     11  C3         5.9753    0.8808   -9.0747 C.3     1  T_I1       -0.0466
     12  H31        6.0762    1.2531   -8.0765 H       1  T_I1        0.0272
     13  H32        6.3723   -0.1114   -9.1270 H       1  T_I1        0.0272
     14  H33        6.5141    1.5164   -9.7468 H       1  T_I1        0.0272
     15  C          1.4652    5.2969   -6.1402 C.3     1  T_I1       -0.0440
     16  HC1        2.2523    5.6037   -6.7971 H       1  T_I1        0.0274
     17  HC2        0.6260    5.9517   -6.2580 H       1  T_I1        0.0274
     18  HC3        1.8092    5.3387   -5.1273 H       1  T_I1        0.0274
     19  C1         1.0465    3.8646   -6.4788 C.2     1  T_I1       -0.0796
     20  C4        -0.0757    3.1805   -5.6761 C.3     1  T_I1       -0.0440
     21  H41        0.1239    2.1098   -5.6115 H       1  T_I1        0.0274
     22  H42       -0.1139    3.6028   -4.6716 H       1  T_I1        0.0274
     23  H43       -1.0306    3.3422   -6.1749 H       1  T_I1        0.0274
     24  C2         1.6559    3.2064   -7.4740 C.2     1  T_I1       -0.0850
     25  H2         2.4355    3.6817   -8.0313 H       1  T_I1        0.0572
     26  C3         1.2380    1.7740   -7.8120 C.3     1  T_I1       -0.0308
     27  H31        1.3876    1.1474   -6.9576 H       1  T_I1        0.0310
     28  H32        0.2042    1.7594   -8.0874 H       1  T_I1        0.0310
@<TRIPOS>BOND
     1     1     4    1
     2     1     2    1
     3     1     3    1
     4     1    26    1
     5     4     9    2
     6     4     5    1
     7     5     6    1
     8     5     7    1
     9     5     8    1
    10     9    11    1
    11     9    10    1
    12    11    12    1
    13    11    13    1
    14    11    14    1
    15    15    19    1
    16    15    16    1
    17    15    17    1
    18    15    18    1
    19    19    24    2
    20    19    20    1
    21    20    21    1
    22    20    22    1
    23    20    23    1
    24    24    26    1
    25    24    25    1
    26    26    27    1
    27    26    28    1
@<TRIPOS>MOLECULE
/home/jramos/Programacion/GITHUB_REPO_DIR/gecos2/data/IsoP.pdb
 28 27 0 0 0
SMALL
GASTEIGER

@<TRIPOS>ATOM
      1  C1         2.0880    1.2530   -8.9850 C.3     1  T_I1       -0.0286
      2  HC1        1.7950    0.2510   -9.2200 H       1  T_I1        0.0313
      3  HC3        1.9360    1.8780   -9.8400 H       1  T_I1        0.0313
      4  C1         3.5670    1.2740   -8.5940 C.2     1  T_I1       -0.0765
      5  C4         4.6360    0.8002   -9.5968 C.3     1  T_I1       -0.0438
      6  H41        5.4646    0.3434   -9.0560 H       1  T_I1        0.0274
      7  H42        4.1977    0.0692  -10.2767 H       1  T_I1        0.0274
      8  H43        5.0016    1.6536  -10.1689 H       1  T_I1        0.0274
      9  C2         3.9334    1.7056   -7.3792 C.2     1  T_I1       -0.0881
     10  H2         3.1904    2.0346   -6.6828 H       1  T_I1        0.0569
     11  C3         5.4119    1.7276   -6.9889 C.3     1  T_I1       -0.0466
     12  H31        6.0026    1.3652   -7.8043 H       1  T_I1        0.0272
     13  H32        5.7047    2.7296   -6.7542 H       1  T_I1        0.0272
     14  H33        5.5648    1.1018   -6.1339 H       1  T_I1        0.0272
     15  C          0.8779   -1.0801   -5.1697 C.3     1  T_I1       -0.0440
     16  HC1        1.6945   -0.7031   -4.5900 H       1  T_I1        0.0274
     17  HC2       -0.0109   -1.0873   -4.5723 H       1  T_I1        0.0274
     18  HC3        1.0985   -2.0773   -5.4906 H       1  T_I1        0.0274
     19  C1         0.6636   -0.1856   -6.3926 C.2     1  T_I1       -0.0796
     20  C4        -0.4579   -0.5102   -7.3968 C.3     1  T_I1       -0.0440
     21  H41       -0.1479   -0.2088   -8.3984 H       1  T_I1        0.0274
     22  H42       -0.6564   -1.5822   -7.3865 H       1  T_I1        0.0274
     23  H43       -1.3625    0.0296   -7.1191 H       1  T_I1        0.0274
     24  C2         1.4515    0.8801   -6.5888 C.2     1  T_I1       -0.0850
     25  H2         2.2306    1.1053   -5.8913 H       1  T_I1        0.0572
     26  C3         1.2380    1.7740   -7.8120 C.3     1  T_I1       -0.0308
     27  H31        0.2041    1.7610   -8.0877 H       1  T_I1        0.0310
     28  H32        1.5311    2.7759   -7.5773 H       1  T_I1        0.0310
@<TRIPOS>BOND
     1     1     4    1
     2     1     2    1
     3     1     3    1
     4     1    26    1
     5     4     9    2
     6     4     5    1
     7     5     6    1
     8     5     7    1
     9     5     8    1
    10     9    11    1
    11     9    10    1
    12    11    12    1
    13    11    13    1
    14    11    14    1
    15    15    19    1
    16    15    16    1
    17    15    17    1
    18    15    18    1
    19    19    24    2
    20    19    20    1
    21    20    21    1
    22    20    22    1
    23    20    23    1
    24    24    26    1
    25    24    25    1
    26    26    27    1
    27    26    28    1
@<TRIPOS>MOLECULE
/home/jramos/Programacion/GITHUB_REPO_DIR/gecos2/data/IsoP.pdb
 28 27 0 0 0
SMALL
GASTEIGER

@<TRIPOS>ATOM
      1  C1         2.0880    1.2530   -8.9850 C.3     1  T_I1       -0.0286
      2  HC1        1.7950    0.2510   -9.2200 H       1  T_I1        0.0313
      3  HC3        1.9360    1.8780   -9.8400 H       1  T_I1        0.0313
      4  C1         3.5670    1.2740   -8.5940 C.2     1  T_I1       -0.0765
      5  C4         4.5389    0.2438   -9.1997 C.3     1  T_I1       -0.0438
      6  H41        5.3153    0.0054   -8.4730 H       1  T_I1        0.0274
      7  H42        3.9919   -0.6630   -9.4590 H       1  T_I1        0.0274
      8  H43        4.9969    0.6600  -10.0976 H       1  T_I1        0.0274
      9  C2         4.0180    2.1894   -7.7250 C.2     1  T_I1       -0.0881
     10  H2         3.3424    2.9048   -7.3044 H       1  T_I1        0.0569
     11  C3         5.4965    2.2110   -7.3353 C.3     1  T_I1       -0.0466
     12  H31        6.0138    1.4281   -7.8499 H       1  T_I1        0.0272
     13  H32        5.9228    3.1553   -7.6021 H       1  T_I1        0.0272
     14  H33        5.5895    2.0633   -6.2790 H       1  T_I1        0.0272
     15  C          2.1521    0.5076   -4.2318 C.3     1  T_I1       -0.0440
     16  HC1        1.8579   -0.4942   -4.4659 H       1  T_I1        0.0274
     17  HC2        3.1866    0.5207   -3.9552 H       1  T_I1        0.0274
     18  HC3        1.5616    0.8715   -3.4164 H       1  T_I1        0.0274
     19  C1         1.9395    1.4016   -5.4553 C.2     1  T_I1       -0.0796
     20  C4         2.2873    2.9001   -5.3836 C.3     1  T_I1       -0.0440
     21  H41        1.6035    3.4632   -6.0205 H       1  T_I1        0.0274
     22  H42        2.1917    3.2469   -4.3544 H       1  T_I1        0.0274
     23  H43        3.3104    3.0530   -5.7252 H       1  T_I1        0.0274
     24  C2         1.4515    0.8801   -6.5888 C.2     1  T_I1       -0.0850
     25  H2         1.2099   -0.1608   -6.6384 H       1  T_I1        0.0572
     26  C3         1.2380    1.7740   -7.8120 C.3     1  T_I1       -0.0308
     27  H31        0.2041    1.7610   -8.0877 H       1  T_I1        0.0310
     28  H32        1.5311    2.7759   -7.5773 H       1  T_I1        0.0310
@<TRIPOS>BOND
     1     1     4    1
     2     1     2    1
     3     1     3    1
     4     1    26    1
     5     4     9    2
     6     4     5    1
     7     5     6    1
     8     5     7    1
     9     5     8    1
    10     9    11    1
    11     9    10    1
    12    11    12    1
    13    11    13    1
    14    11    14    1
    15    15    19    1
    16    15    16    1
    17    15    17    1
    18    15    18    1
    19    19    24    2
    20    19    20    1
    21    20    21    1
    22    20    22    1
    23    20    23    1
    24    24    26    1
    25    24    25    1
    26    26    27    1
    27    26    28    1
@<TRIPOS>MOLECULE
/home/jramos/Programacion/GITHUB_REPO_DIR/gecos2/data/IsoP.pdb
 28 27 0 0 0
SMALL
GASTEIGER

@<TRIPOS>ATOM
      1  C1         2.0880    1.2530   -8.9850 C.3     1  T_I1       -0.0286
      2  HC1        1.7950    0.2510   -9.2200 H       1  T_I1        0.0313
      3  HC3        1.9360    1.8780   -9.8400 H       1  T_I1        0.0313
      4  C1         3.5670    1.2740   -8.5940 C.2     1  T_I1       -0.0765
      5  C4         4.4193    2.5272   -8.8698 C.3     1  T_I1       -0.0438
      6  H41        5.4453    2.2290   -9.0843 H       1  T_I1        0.0274
      7  H42        4.0095    3.0641   -9.7256 H       1  T_I1        0.0274
      8  H43        4.4050    3.1766   -7.9939 H       1  T_I1        0.0274
      9  C2         4.1216    0.2025   -8.0104 C.2     1  T_I1       -0.0881
     10  H2         3.5292   -0.6679   -7.8191 H       1  T_I1        0.0569
     11  C3         5.5997    0.2241   -7.6186 C.3     1  T_I1       -0.0466
     12  H31        6.0270    1.1682   -7.8857 H       1  T_I1        0.0272
     13  H32        5.6918    0.0769   -6.5629 H       1  T_I1        0.0272
     14  H33        6.1172   -0.5585   -8.1343 H       1  T_I1        0.0272
     15  C          3.0437    4.8596   -6.2384 C.3     1  T_I1       -0.0440
     16  HC1        2.4584    5.5472   -6.8126 H       1  T_I1        0.0274
     17  HC2        2.8865    5.0413   -5.1948 H       1  T_I1        0.0274
     18  HC3        4.0802    4.9930   -6.4703 H       1  T_I1        0.0274
     19  C1         2.6251    3.4269   -6.5757 C.2     1  T_I1       -0.0796
     20  C4         3.3176    2.2391   -5.8820 C.3     1  T_I1       -0.0440
     21  H41        3.3596    1.3914   -6.5675 H       1  T_I1        0.0274
     22  H42        4.3305    2.5244   -5.5968 H       1  T_I1        0.0274
     23  H43        2.7548    1.9588   -4.9923 H       1  T_I1        0.0274
     24  C2         1.6559    3.2064   -7.4740 C.2     1  T_I1       -0.0850
     25  H2         1.1751    4.0316   -7.9559 H       1  T_I1        0.0572
     26  C3         1.2380    1.7740   -7.8120 C.3     1  T_I1       -0.0308
     27  H31        1.3876    1.1474   -6.9576 H       1  T_I1        0.0310
     28  H32        0.2042    1.7594   -8.0874 H       1  T_I1        0.0310
@<TRIPOS>BOND
     1     1     4    1
     2     1     2    1
     3     1     3    1
     4     1    26    1
     5     4     9    2
     6     4     5    1
     7     5     6    1
     8     5     7    1
     9     5     8    1
    10     9    11    1
    11     9    10    1
    12    11    12    1
    13    11    13    1
    14    11    14    1
    15    15    19    1
    16    15    16    1
    17    15    17    1
    18    15    18    1
    19    19    24    2
    20    19    20    1
    21    20    21    1
    22    20    22    1
    23    20    23    1
    24    24    26    1
    25    24    25    1
    26    26    27    1
    27    26    28    1
@<TRIPOS>MOLECULE
/home/jramos/Programacion/GITHUB_REPO_DIR/gecos2/data/IsoP.pdb
 28 27 0 0 0
SMALL
GASTEIGER

@<TRIPOS>ATOM
      1  C1         2.0880    1.2530   -8.9850 C.3     1  T_I1       -0.0286
      2  HC1        1.7950    0.2510   -9.2200 H       1  T_I1        0.0313
      3  HC3        1.9360    1.8780   -9.8400 H       1  T_I1        0.0313
      4  C1         3.5670    1.2740   -8.5940 C.2     1  T_I1       -0.0765
      5  C4         4.3810   -0.0338   -8.5876 C.3     1  T_I1       -0.0438
      6  H41        5.1387    0.0136   -7.8057 H       1  T_I1        0.0274
      7  H42        3.7145   -0.8756   -8.3984 H       1  T_I1        0.0274
      8  H43        4.8653   -0.1654   -9.5557 H       1  T_I1        0.0274
      9  C2         4.1554    2.4303   -8.2578 C.2     1  T_I1       -0.0881
     10  H2         3.5895    3.3386   -8.2624 H       1  T_I1        0.0569
     11  C3         5.6340    2.4513   -7.8682 C.3     1  T_I1       -0.0466
     12  H31        6.0318    1.4592   -7.9197 H       1  T_I1        0.0272
     13  H32        6.1719    3.0864   -8.5406 H       1  T_I1        0.0272
     14  H33        5.7348    2.8228   -6.8692 H       1  T_I1        0.0272
     15  C          1.9711    5.6026   -8.0610 C.3     1  T_I1       -0.0440
     16  HC1        2.3152    5.6447   -7.0486 H       1  T_I1        0.0274
     17  HC2        2.7581    5.9104   -8.7189 H       1  T_I1        0.0274
     18  HC3        1.1321    6.2566   -8.1801 H       1  T_I1        0.0274
     19  C1         1.5540    4.1698   -8.3995 C.2     1  T_I1       -0.0796
     20  C4         1.0179    3.8355   -9.8040 C.3     1  T_I1       -0.0440
     21  H41        0.2784    3.0368   -9.7306 H       1  T_I1        0.0274
     22  H42        0.5521    4.7215  -10.2359 H       1  T_I1        0.0274
     23  H43        1.8408    3.5109  -10.4398 H       1  T_I1        0.0274
     24  C2         1.6559    3.2064   -7.4740 C.2     1  T_I1       -0.0850
     25  H2         2.0281    3.4388   -6.4984 H       1  T_I1        0.0572
     26  C3         1.2380    1.7740   -7.8120 C.3     1  T_I1       -0.0308
     27  H31        1.3876    1.1474   -6.9576 H       1  T_I1        0.0310
     28  H32        0.2042    1.7594   -8.0874 H       1  T_I1        0.0310
@<TRIPOS>BOND
     1     1     4    1
     2     1     2    1
     3     1     3    1
     4     1    26    1
     5     4     9    2
     6     4     5    1
     7     5     6    1
     8     5     7    1
     9     5     8    1
    10     9    11    1
    11     9    10    1
    12    11    12    1
    13    11    13    1
    14    11    14    1
    15    15    19    1
    16    15    16    1
    17    15    17    1
    18    15    18    1
    19    19    24    2
    20    19    20    1
    21    20    21    1
    22    20    22    1
    23    20    23    1
    24    24    26    1
    25    24    25    1
    26    26    27    1
    27    26    28    1
@<TRIPOS>MOLECULE
/home/jramos/Programacion/GITHUB_REPO_DIR/gecos2/data/IsoP.pdb
 28 27 0 0 0
SMALL
GASTEIGER

@<TRIPOS>ATOM
      1  C1         2.0880    1.2530   -8.9850 C.3     1  T_I1       -0.0286
      2  HC1        1.7950    0.2510   -9.2200 H       1  T_I1        0.0313
      3  HC3        1.9360    1.8780   -9.8400 H       1  T_I1        0.0313
      4  C1         3.5670    1.2740   -8.5940 C.2     1  T_I1       -0.0765
      5  C4         4.6360    0.8002   -9.5968 C.3     1  T_I1       -0.0438
      6  H41        5.4646    0.3434   -9.0560 H       1  T_I1        0.0274
      7  H42        4.1977    0.0692  -10.2767 H       1  T_I1        0.0274
      8  H43        5.0016    1.6536  -10.1689 H       1  T_I1        0.0274
      9  C2         3.9334    1.7056   -7.3792 C.2     1  T_I1       -0.0881
     10  H2         3.1904    2.0346   -6.6828 H       1  T_I1        0.0569
     11  C3         5.4119    1.7276   -6.9889 C.3     1  T_I1       -0.0466
     12  H31        6.0026    1.3652   -7.8043 H       1  T_I1        0.0272
     13  H32        5.7047    2.7296   -6.7542 H       1  T_I1        0.0272
     14  H33        5.5648    1.1018   -6.1339 H       1  T_I1        0.0272
     15  C          1.9711    5.6026   -8.0610 C.3     1  T_I1       -0.0440
     16  HC1        2.3152    5.6447   -7.0486 H       1  T_I1        0.0274
     17  HC2        2.7581    5.9104   -8.7189 H       1  T_I1        0.0274
     18  HC3        1.1321    6.2566   -8.1801 H       1  T_I1        0.0274
     19  C1         1.5540    4.1698   -8.3995 C.2     1  T_I1       -0.0796
     20  C4         1.0179    3.8355   -9.8040 C.3     1  T_I1       -0.0440
     21  H41        0.2784    3.0368   -9.7306 H       1  T_I1        0.0274
     22  H42        0.5521    4.7215  -10.2359 H       1  T_I1        0.0274
     23  H43        1.8408    3.5109  -10.4398 H       1  T_I1        0.0274
     24  C2         1.6559    3.2064   -7.4740 C.2     1  T_I1       -0.0850
     25  H2         2.0281    3.4388   -6.4984 H       1  T_I1        0.0572
     26  C3         1.2380    1.7740   -7.8120 C.3     1  T_I1       -0.0308
     27  H31        1.3876    1.1474   -6.9576 H       1  T_I1        0.0310
     28  H32        0.2042    1.7594   -8.0874 H       1  T_I1        0.0310
@<TRIPOS>BOND
     1     1     4    1
     2     1     2    1
     3     1     3    1
     4     1    26    1
     5     4     9    2
     6     4     5    1
     7     5     6    1
     8     5     7    1
     9     5     8    1
    10     9    11    1
    11     9    10    1
    12    11    12    1
    13    11    13    1
    14    11    14    1
    15    15    19    1
    16    15    16    1
    17    15    17    1
    18    15    18    1
    19    19    24    2
    20    19    20    1
    21    20    21    1
    22    20    22    1
    23    20    23    1
    24    24    26    1
    25    24    25    1
    26    26    27    1
    27    26    28    1
