@<TRIPOS>MOLECULE
/home/jramos/Programacion/GITHUB_REPO_DIR/gecos2/data/IsoP.pdb
 28 27 0 0 0
SMALL
GASTEIGER

@<TRIPOS>ATOM
      1 C1          2.1492    1.2616   -8.9453 C.3     1  T_I11      -0.0286
      2 HC1         1.8551    0.2555   -9.2739 H       1  T_I11       0.0313
      3 HC3         1.9878    1.9199   -9.8092 H       1  T_I11       0.0313
      4 C1          3.6219    1.2955   -8.5786 C.2     1  T_I11      -0.0765
      5 C4          4.1775    2.6561   -8.2493 C.3     1  T_I11      -0.0438
      6 H41         5.2182    2.7671   -8.5655 H       1  T_I11       0.0274
      7 H42         3.6142    3.4422   -8.7638 H       1  T_I11       0.0274
      8 H43         4.1122    2.8387   -7.1718 H       1  T_I11       0.0274
      9 C2          4.3597    0.1679   -8.5683 C.2     1  T_I11      -0.0881
     10 H2          3.8827   -0.7743   -8.8350 H       1  T_I11       0.0569
     11 C3          5.8022    0.0400   -8.1917 C.3     1  T_I11      -0.0466
     12 H31         6.2538    0.9819   -7.8715 H       1  T_I11       0.0272
     13 H32         5.9023   -0.6693   -7.3642 H       1  T_I11       0.0272
     14 H33         6.3758   -0.3410   -9.0418 H       1  T_I11       0.0272
     15 C          -2.3876    2.8919   -8.5691 C.3     1  T_I11      -0.0440
     16 HC1        -2.7347    1.8801   -8.8036 H       1  T_I11       0.0274
     17 HC2        -2.9938    3.2683   -7.7386 H       1  T_I11       0.0274
     18 HC3        -2.5708    3.5187   -9.4479 H       1  T_I11       0.0274
     19 C1         -0.9289    2.9238   -8.2006 C.2     1  T_I11      -0.0796
     20 C4         -0.3871    4.2839   -7.8603 C.3     1  T_I11      -0.0440
     21 H41         0.6525    4.4050   -8.1799 H       1  T_I11       0.0274
     22 H42        -0.9575    5.0708   -8.3673 H       1  T_I11       0.0274
     23 H43        -0.4515    4.4575   -6.7819 H       1  T_I11       0.0274
     24 C2         -0.1894    1.7953   -8.1819 C.2     1  T_I11      -0.0850
     25 H2         -0.6625    0.8518   -8.4479 H       1  T_I11       0.0572
     26 C3          1.2554    1.6855   -7.7742 C.3     1  T_I11      -0.0308
     27 H31         1.6098    2.6276   -7.3456 H       1  T_I11       0.0310
     28 H32         1.3301    0.9460   -6.9679 H       1  T_I11       0.0310
@<TRIPOS>BOND
     1     1     4    1
     2     1     2    1
     3     1     3    1
     4     1    26    1
     5     4     9    2
     6     4     5    1
     7     5     6    1
     8     5     7    1
     9     5     8    1
    10     9    11    1
    11     9    10    1
    12    11    12    1
    13    11    13    1
    14    11    14    1
    15    15    19    1
    16    15    16    1
    17    15    17    1
    18    15    18    1
    19    19    24    2
    20    19    20    1
    21    20    21    1
    22    20    22    1
    23    20    23    1
    24    24    26    1
    25    24    25    1
    26    26    27    1
    27    26    28    1
@<TRIPOS>MOLECULE
/home/jramos/Programacion/GITHUB_REPO_DIR/gecos2/data/IsoP.pdb
 28 27 0 0 0
SMALL
GASTEIGER

@<TRIPOS>ATOM
      1 C1          2.1786    1.1978   -8.9628 C.3     1  T_I11      -0.0286
      2 HC1         1.8897    0.1857   -9.2733 H       1  T_I11       0.0313
      3 HC3         2.0434    1.8274   -9.8525 H       1  T_I11       0.0313
      4 C1          3.6354    1.2104   -8.5503 C.2     1  T_I11      -0.0765
      5 C4          4.1300   -0.0383   -7.8710 C.3     1  T_I11      -0.0438
      6 H41         4.9185    0.1703   -7.1424 H       1  T_I11       0.0274
      7 H42         3.3206   -0.5290   -7.3200 H       1  T_I11       0.0274
      8 H43         4.5107   -0.7442   -8.6153 H       1  T_I11       0.0274
      9 C2          4.4039    2.2873   -8.8034 C.2     1  T_I11      -0.0881
     10 H2          3.9460    3.1466   -9.2945 H       1  T_I11       0.0569
     11 C3          5.8571    2.4652   -8.4962 C.3     1  T_I11      -0.0466
     12 H31         6.3251    1.5715   -8.0786 H       1  T_I11       0.0272
     13 H32         6.3956    2.7213   -9.4141 H       1  T_I11       0.0272
     14 H33         5.9864    3.2861   -7.7849 H       1  T_I11       0.0272
     15 C          -2.2369    2.8508   -9.1418 C.3     1  T_I11      -0.0440
     16 HC1        -2.7164    1.9026   -8.8770 H       1  T_I11       0.0274
     17 HC2        -2.7627    3.6500   -8.6093 H       1  T_I11       0.0274
     18 HC3        -2.3701    3.0024  -10.2180 H       1  T_I11       0.0274
     19 C1         -0.7740    2.8674   -8.7917 C.2     1  T_I11      -0.0796
     20 C4         -0.0651    4.1616   -9.0840 C.3     1  T_I11      -0.0440
     21 H41         1.0072    4.0230   -9.2497 H       1  T_I11       0.0274
     22 H42        -0.4628    4.6214   -9.9947 H       1  T_I11       0.0274
     23 H43        -0.2020    4.8639   -8.2555 H       1  T_I11       0.0274
     24 C2         -0.1697    1.7812   -8.2714 C.2     1  T_I11      -0.0850
     25 H2         -0.7536    0.8756   -8.1115 H       1  T_I11       0.0572
     26 C3          1.2679    1.6920   -7.8341 C.3     1  T_I11      -0.0308
     27 H31         1.6111    2.6648   -7.4600 H       1  T_I11       0.0310
     28 H32         1.3246    1.0110   -6.9755 H       1  T_I11       0.0310
@<TRIPOS>BOND
     1     1     4    1
     2     1     2    1
     3     1     3    1
     4     1    26    1
     5     4     9    2
     6     4     5    1
     7     5     6    1
     8     5     7    1
     9     5     8    1
    10     9    11    1
    11     9    10    1
    12    11    12    1
    13    11    13    1
    14    11    14    1
    15    15    19    1
    16    15    16    1
    17    15    17    1
    18    15    18    1
    19    19    24    2
    20    19    20    1
    21    20    21    1
    22    20    22    1
    23    20    23    1
    24    24    26    1
    25    24    25    1
    26    26    27    1
    27    26    28    1
@<TRIPOS>MOLECULE
/home/jramos/Programacion/GITHUB_REPO_DIR/gecos2/data/IsoP.pdb
 28 27 0 0 0
SMALL
GASTEIGER

@<TRIPOS>ATOM
      1 C1          2.2163    1.2838   -8.9757 C.3     1  T_I11      -0.0286
      2 HC1         1.9254    0.2637   -9.2549 H       1  T_I11       0.0313
      3 HC3         2.0328    1.8904   -9.8701 H       1  T_I11       0.0313
      4 C1          3.6987    1.3277   -8.6376 C.2     1  T_I11      -0.0765
      5 C4          4.3803    2.6439   -8.8884 C.3     1  T_I11      -0.0438
      6 H41         5.4584    2.5356   -9.0409 H       1  T_I11       0.0274
      7 H42         3.9915    3.1140   -9.7985 H       1  T_I11       0.0274
      8 H43         4.2108    3.3256   -8.0506 H       1  T_I11       0.0274
      9 C2          4.3104    0.2302   -8.1499 C.2     1  T_I11      -0.0881
     10 H2          3.7150   -0.6724   -8.0121 H       1  T_I11       0.0569
     11 C3          5.7262    0.0952   -7.6903 C.3     1  T_I11      -0.0466
     12 H31         6.3040    1.0173   -7.7764 H       1  T_I11       0.0272
     13 H32         5.7367   -0.2018   -6.6357 H       1  T_I11       0.0272
     14 H33         6.2314   -0.6836   -8.2678 H       1  T_I11       0.0272
     15 C           0.7210   -0.9941   -5.1340 C.3     1  T_I11      -0.0440
     16 HC1         1.5327   -0.6207   -4.4989 H       1  T_I11       0.0274
     17 HC2        -0.1969   -0.9941   -4.5374 H       1  T_I11       0.0274
     18 HC3         0.9631   -2.0280   -5.4023 H       1  T_I11       0.0274
     19 C1          0.5391   -0.1648   -6.3744 C.2     1  T_I11      -0.0796
     20 C4         -0.5668   -0.6231   -7.2838 C.3     1  T_I11      -0.0440
     21 H41        -0.4516   -0.2552   -8.3094 H       1  T_I11       0.0274
     22 H42        -0.5837   -1.7160   -7.3467 H       1  T_I11       0.0274
     23 H43        -1.5334   -0.2834   -6.9022 H       1  T_I11       0.0274
     24 C2          1.3513    0.8782   -6.6323 C.2     1  T_I11      -0.0850
     25 H2          2.1434    1.1151   -5.9222 H       1  T_I11       0.0572
     26 C3          1.3128    1.7836   -7.8383 C.3     1  T_I11      -0.0308
     27 H31         0.2860    1.8784   -8.2097 H       1  T_I11       0.0310
     28 H32         1.6092    2.7922   -7.5293 H       1  T_I11       0.0310
@<TRIPOS>BOND
     1     1     4    1
     2     1     2    1
     3     1     3    1
     4     1    26    1
     5     4     9    2
     6     4     5    1
     7     5     6    1
     8     5     7    1
     9     5     8    1
    10     9    11    1
    11     9    10    1
    12    11    12    1
    13    11    13    1
    14    11    14    1
    15    15    19    1
    16    15    16    1
    17    15    17    1
    18    15    18    1
    19    19    24    2
    20    19    20    1
    21    20    21    1
    22    20    22    1
    23    20    23    1
    24    24    26    1
    25    24    25    1
    26    26    27    1
    27    26    28    1
@<TRIPOS>MOLECULE
/home/jramos/Programacion/GITHUB_REPO_DIR/gecos2/data/IsoP.pdb
 28 27 0 0 0
SMALL
GASTEIGER

@<TRIPOS>ATOM
      1 C1          2.1612    1.3300   -8.9633 C.3     1  T_I11      -0.0286
      2 HC1         1.8542    0.3127   -9.2452 H       1  T_I11       0.0313
      3 HC3         2.0160    1.9468   -9.8605 H       1  T_I11       0.0313
      4 C1          3.6327    1.3456   -8.5902 C.2     1  T_I11      -0.0765
      5 C4          4.2061    2.6973   -8.2619 C.3     1  T_I11      -0.0438
      6 H41         5.2558    2.7858   -8.5561 H       1  T_I11       0.0274
      7 H42         3.6686    3.4879   -8.7958 H       1  T_I11       0.0274
      8 H43         4.1205    2.8908   -7.1872 H       1  T_I11       0.0274
      9 C2          4.3502    0.2052   -8.5739 C.2     1  T_I11      -0.0881
     10 H2          3.8559   -0.7287   -8.8401 H       1  T_I11       0.0569
     11 C3          5.7895    0.0456   -8.1954 C.3     1  T_I11      -0.0466
     12 H31         6.2585    0.9746   -7.8635 H       1  T_I11       0.0272
     13 H32         5.8739   -0.6749   -7.3761 H       1  T_I11       0.0272
     14 H33         6.3566   -0.3386   -9.0481 H       1  T_I11       0.0272
     15 C          -2.4228    0.6149   -8.3394 C.3     1  T_I11      -0.0440
     16 HC1        -2.7295    1.5517   -8.8155 H       1  T_I11       0.0274
     17 HC2        -2.6078   -0.1982   -9.0494 H       1  T_I11       0.0274
     18 HC3        -3.0614    0.4653   -7.4620 H       1  T_I11       0.0274
     19 C1         -0.9749    0.6276   -7.9330 C.2     1  T_I11      -0.0796
     20 C4         -0.4806   -0.6404   -7.2930 C.3     1  T_I11      -0.0440
     21 H41         0.3181   -0.4623   -6.5680 H       1  T_I11       0.0274
     22 H42        -1.2876   -1.1427   -6.7499 H       1  T_I11       0.0274
     23 H43        -0.1083   -1.3262   -8.0616 H       1  T_I11       0.0274
     24 C2         -0.1973    1.7029   -8.1664 C.2     1  T_I11      -0.0850
     25 H2         -0.6327    2.5718   -8.6584 H       1  T_I11       0.0572
     26 C3          1.2630    1.8366   -7.8291 C.3     1  T_I11      -0.0308
     27 H31         1.4652    2.8970   -7.6316 H       1  T_I11       0.0310
     28 H32         1.4990    1.3144   -6.8926 H       1  T_I11       0.0310
@<TRIPOS>BOND
     1     1     4    1
     2     1     2    1
     3     1     3    1
     4     1    26    1
     5     4     9    2
     6     4     5    1
     7     5     6    1
     8     5     7    1
     9     5     8    1
    10     9    11    1
    11     9    10    1
    12    11    12    1
    13    11    13    1
    14    11    14    1
    15    15    19    1
    16    15    16    1
    17    15    17    1
    18    15    18    1
    19    19    24    2
    20    19    20    1
    21    20    21    1
    22    20    22    1
    23    20    23    1
    24    24    26    1
    25    24    25    1
    26    26    27    1
    27    26    28    1
@<TRIPOS>MOLECULE
/home/jramos/Programacion/GITHUB_REPO_DIR/gecos2/data/IsoP.pdb
 28 27 0 0 0
SMALL
GASTEIGER

@<TRIPOS>ATOM
      1 C1          2.1473    1.1736   -9.0074 C.3     1  T_I11      -0.0286
      2 HC1         1.8248    0.1341   -9.1552 H       1  T_I11       0.0313
      3 HC3         1.8964    1.6919   -9.9404 H       1  T_I11       0.0313
      4 C1          3.6516    1.2307   -8.7904 C.2     1  T_I11      -0.0765
      5 C4          4.3058    2.5412   -9.1336 C.3     1  T_I11      -0.0438
      6 H41         5.3862    2.4501   -9.2741 H       1  T_I11       0.0274
      7 H42         3.9055    2.9348  -10.0738 H       1  T_I11       0.0274
      8 H43         4.1212    3.2789   -8.3478 H       1  T_I11       0.0274
      9 C2          4.2995    0.1614   -8.2879 C.2     1  T_I11      -0.0881
     10 H2          3.7216   -0.7376   -8.0742 H       1  T_I11       0.0569
     11 C3          5.7306    0.0675   -7.8667 C.3     1  T_I11      -0.0466
     12 H31         6.2788    1.0062   -7.9659 H       1  T_I11       0.0272
     13 H32         5.7742   -0.2230   -6.8114 H       1  T_I11       0.0272
     14 H33         6.2452   -0.7003   -8.4520 H       1  T_I11       0.0272
     15 C           2.4638    0.3547   -4.3768 C.3     1  T_I11      -0.0440
     16 HC1         1.7774   -0.4960   -4.4510 H       1  T_I11       0.0274
     17 HC2         3.4822   -0.0433   -4.3352 H       1  T_I11       0.0274
     18 HC3         2.2536    0.8705   -3.4334 H       1  T_I11       0.0274
     19 C1          2.3297    1.3021   -5.5378 C.2     1  T_I11      -0.0796
     20 C4          3.2351    2.5020   -5.4655 C.3     1  T_I11      -0.0440
     21 H41         2.9508    3.2983   -6.1562 H       1  T_I11       0.0274
     22 H42         3.2111    2.9368   -4.4610 H       1  T_I11       0.0274
     23 H43         4.2658    2.2076   -5.6858 H       1  T_I11       0.0274
     24 C2          1.5012    1.0228   -6.5645 C.2     1  T_I11      -0.0850
     25 H2          0.9107    0.1077   -6.5205 H       1  T_I11       0.0572
     26 C3          1.3442    1.7957   -7.8507 C.3     1  T_I11      -0.0308
     27 H31         0.2795    1.7872   -8.1175 H       1  T_I11       0.0310
     28 H32         1.6067    2.8507   -7.7300 H       1  T_I11       0.0310
@<TRIPOS>BOND
     1     1     4    1
     2     1     2    1
     3     1     3    1
     4     1    26    1
     5     4     9    2
     6     4     5    1
     7     5     6    1
     8     5     7    1
     9     5     8    1
    10     9    11    1
    11     9    10    1
    12    11    12    1
    13    11    13    1
    14    11    14    1
    15    15    19    1
    16    15    16    1
    17    15    17    1
    18    15    18    1
    19    19    24    2
    20    19    20    1
    21    20    21    1
    22    20    22    1
    23    20    23    1
    24    24    26    1
    25    24    25    1
    26    26    27    1
    27    26    28    1
@<TRIPOS>MOLECULE
/home/jramos/Programacion/GITHUB_REPO_DIR/gecos2/data/IsoP.pdb
 28 27 0 0 0
SMALL
GASTEIGER

@<TRIPOS>ATOM
      1 C1          2.2117    1.2943   -8.9475 C.3     1  T_I11      -0.0286
      2 HC1         1.9036    0.3005   -9.2973 H       1  T_I11       0.0313
      3 HC3         2.0571    1.9619   -9.8056 H       1  T_I11       0.0313
      4 C1          3.6854    1.2710   -8.5885 C.2     1  T_I11      -0.0765
      5 C4          4.2131   -0.0221   -8.0256 C.3     1  T_I11      -0.0438
      6 H41         4.9444    0.1488   -7.2301 H       1  T_I11       0.0274
      7 H42         3.4160   -0.6288   -7.5859 H       1  T_I11       0.0274
      8 H43         4.6760   -0.6170   -8.8189 H       1  T_I11       0.0274
      9 C2          4.4525    2.3604   -8.7974 C.2     1  T_I11      -0.0881
     10 H2          3.9866    3.2528   -9.2147 H       1  T_I11       0.0569
     11 C3          5.9153    2.4997   -8.5264 C.3     1  T_I11      -0.0466
     12 H31         6.3741    1.5894   -8.1333 H       1  T_I11       0.0272
     13 H32         6.4373    2.7622   -9.4526 H       1  T_I11       0.0272
     14 H33         6.0813    3.3027   -7.8017 H       1  T_I11       0.0272
     15 C           0.7098   -1.0211   -5.1205 C.3     1  T_I11      -0.0440
     16 HC1         1.5182   -0.6467   -4.4831 H       1  T_I11       0.0274
     17 HC2        -0.2088   -1.0326   -4.5264 H       1  T_I11       0.0274
     18 HC3         0.9611   -2.0506   -5.3976 H       1  T_I11       0.0274
     19 C1          0.5264   -0.1844   -6.3576 C.2     1  T_I11      -0.0796
     20 C4         -0.5661   -0.6456   -7.2823 C.3     1  T_I11      -0.0440
     21 H41        -0.4136   -0.3117   -8.3125 H       1  T_I11       0.0274
     22 H42        -0.6091   -1.7396   -7.3122 H       1  T_I11       0.0274
     23 H43        -1.5344   -0.2721   -6.9355 H       1  T_I11       0.0274
     24 C2          1.3291    0.8674   -6.6025 C.2     1  T_I11      -0.0850
     25 H2          2.1094    1.1141   -5.8823 H       1  T_I11       0.0572
     26 C3          1.2948    1.7673   -7.8078 C.3     1  T_I11      -0.0308
     27 H31         0.2700    1.8605   -8.1859 H       1  T_I11       0.0310
     28 H32         1.5817    2.7791   -7.4922 H       1  T_I11       0.0310
@<TRIPOS>BOND
     1     1     4    1
     2     1     2    1
     3     1     3    1
     4     1    26    1
     5     4     9    2
     6     4     5    1
     7     5     6    1
     8     5     7    1
     9     5     8    1
    10     9    11    1
    11     9    10    1
    12    11    12    1
    13    11    13    1
    14    11    14    1
    15    15    19    1
    16    15    16    1
    17    15    17    1
    18    15    18    1
    19    19    24    2
    20    19    20    1
    21    20    21    1
    22    20    22    1
    23    20    23    1
    24    24    26    1
    25    24    25    1
    26    26    27    1
    27    26    28    1
@<TRIPOS>MOLECULE
/home/jramos/Programacion/GITHUB_REPO_DIR/gecos2/data/IsoP.pdb
 28 27 0 0 0
SMALL
GASTEIGER

@<TRIPOS>ATOM
      1 C1          2.1661    1.2032   -8.9719 C.3     1  T_I11      -0.0286
      2 HC1         1.8515    0.1782   -9.2068 H       1  T_I11       0.0313
      3 HC3         2.0158    1.7767   -9.8972 H       1  T_I11       0.0313
      4 C1          3.6401    1.1871   -8.6024 C.2     1  T_I11      -0.0765
      5 C4          4.0382    0.2802   -7.4714 C.3     1  T_I11      -0.0438
      6 H41         4.7273    0.7804   -6.7819 H       1  T_I11       0.0274
      7 H42         3.1747   -0.0308   -6.8782 H       1  T_I11       0.0274
      8 H43         4.5108   -0.6279   -7.8585 H       1  T_I11       0.0274
      9 C2          4.5211    1.9609   -9.2685 C.2     1  T_I11      -0.0881
     10 H2          4.1566    2.5933  -10.0776 H       1  T_I11       0.0569
     11 C3          5.9916    2.0720   -9.0206 C.3     1  T_I11      -0.0466
     12 H31         6.3427    1.4433   -8.1983 H       1  T_I11       0.0272
     13 H32         6.5408    1.7822   -9.9218 H       1  T_I11       0.0272
     14 H33         6.2465    3.1101   -8.7834 H       1  T_I11       0.0272
     15 C           2.4839    4.9145   -5.8938 C.3     1  T_I11      -0.0440
     16 HC1         2.3488    5.5773   -6.7534 H       1  T_I11       0.0274
     17 HC2         1.8927    5.3147   -5.0642 H       1  T_I11       0.0274
     18 HC3         3.5421    4.9478   -5.6146 H       1  T_I11       0.0274
     19 C1          2.0739    3.4975   -6.1944 C.2     1  T_I11      -0.0796
     20 C4          2.2124    2.5489   -5.0344 C.3     1  T_I11      -0.0440
     21 H41         2.3995    1.5197   -5.3487 H       1  T_I11       0.0274
     22 H42         3.0599    2.8329   -4.4005 H       1  T_I11       0.0274
     23 H43         1.3064    2.5650   -4.4222 H       1  T_I11       0.0274
     24 C2          1.6488    3.1478   -7.4215 C.2     1  T_I11      -0.0850
     25 H2          1.5969    3.9177   -8.1946 H       1  T_I11       0.0572
     26 C3          1.2356    1.7771   -7.8896 C.3     1  T_I11      -0.0308
     27 H31         1.1512    1.0725   -7.0577 H       1  T_I11       0.0310
     28 H32         0.2225    1.8527   -8.3074 H       1  T_I11       0.0310
@<TRIPOS>BOND
     1     1     4    1
     2     1     2    1
     3     1     3    1
     4     1    26    1
     5     4     9    2
     6     4     5    1
     7     5     6    1
     8     5     7    1
     9     5     8    1
    10     9    11    1
    11     9    10    1
    12    11    12    1
    13    11    13    1
    14    11    14    1
    15    15    19    1
    16    15    16    1
    17    15    17    1
    18    15    18    1
    19    19    24    2
    20    19    20    1
    21    20    21    1
    22    20    22    1
    23    20    23    1
    24    24    26    1
    25    24    25    1
    26    26    27    1
    27    26    28    1
@<TRIPOS>MOLECULE
/home/jramos/Programacion/GITHUB_REPO_DIR/gecos2/data/IsoP.pdb
 28 27 0 0 0
SMALL
GASTEIGER

@<TRIPOS>ATOM
      1 C1          2.1589    1.1880   -8.8718 C.3     1  T_I11      -0.0286
      2 HC1         1.8678    0.1531   -9.0858 H       1  T_I11       0.0313
      3 HC3         1.9814    1.7442   -9.8030 H       1  T_I11       0.0313
      4 C1          3.6377    1.2112   -8.5186 C.2     1  T_I11      -0.0765
      5 C4          4.0531    0.3457   -7.3614 C.3     1  T_I11      -0.0438
      6 H41         4.8479    0.8085   -6.7703 H       1  T_I11       0.0274
      7 H42         3.2279    0.1673   -6.6660 H       1  T_I11       0.0274
      8 H43         4.3945   -0.6283   -7.7249 H       1  T_I11       0.0274
      9 C2          4.5014    1.9651   -9.2244 C.2     1  T_I11      -0.0881
     10 H2          4.1232    2.5655  -10.0520 H       1  T_I11       0.0569
     11 C3          5.9800    2.0802   -9.0102 C.3     1  T_I11      -0.0466
     12 H31         6.3515    1.4584   -8.1935 H       1  T_I11       0.0272
     13 H32         6.5092    1.7804   -9.9203 H       1  T_I11       0.0272
     14 H33         6.2398    3.1203   -8.7901 H       1  T_I11       0.0272
     15 C           1.4096    5.6631   -7.7532 C.3     1  T_I11      -0.0440
     16 HC1         2.2153    5.6797   -7.0125 H       1  T_I11       0.0274
     17 HC2         1.7799    6.1575   -8.6573 H       1  T_I11       0.0274
     18 HC3         0.5749    6.2484   -7.3515 H       1  T_I11       0.0274
     19 C1          0.9600    4.2654   -8.0767 C.2     1  T_I11      -0.0796
     20 C4         -0.1049    4.1591   -9.1329 C.3     1  T_I11      -0.0440
     21 H41        -0.7614    3.2988   -8.9782 H       1  T_I11       0.0274
     22 H42        -0.7492    5.0440   -9.1261 H       1  T_I11       0.0274
     23 H43         0.3559    4.0757  -10.1222 H       1  T_I11       0.0274
     24 C2          1.5261    3.2001   -7.4804 C.2     1  T_I11      -0.0850
     25 H2          2.3118    3.3631   -6.7439 H       1  T_I11       0.0572
     26 C3          1.2360    1.7534   -7.7795 C.3     1  T_I11      -0.0308
     27 H31         1.3285    1.1824   -6.8496 H       1  T_I11       0.0310
     28 H32         0.1943    1.6139   -8.0888 H       1  T_I11       0.0310
@<TRIPOS>BOND
     1     1     4    1
     2     1     2    1
     3     1     3    1
     4     1    26    1
     5     4     9    2
     6     4     5    1
     7     5     6    1
     8     5     7    1
     9     5     8    1
    10     9    11    1
    11     9    10    1
    12    11    12    1
    13    11    13    1
    14    11    14    1
    15    15    19    1
    16    15    16    1
    17    15    17    1
    18    15    18    1
    19    19    24    2
    20    19    20    1
    21    20    21    1
    22    20    22    1
    23    20    23    1
    24    24    26    1
    25    24    25    1
    26    26    27    1
    27    26    28    1
@<TRIPOS>MOLECULE
/home/jramos/Programacion/GITHUB_REPO_DIR/gecos2/data/IsoP.pdb
 28 27 0 0 0
SMALL
GASTEIGER

@<TRIPOS>ATOM
      1 C1          2.1740    1.2648   -9.0656 C.3     1  T_I11      -0.0286
      2 HC1         1.8241    0.2567   -9.3255 H       1  T_I11       0.0313
      3 HC3         1.9748    1.8757   -9.9554 H       1  T_I11       0.0313
      4 C1          3.6682    1.2234   -8.7905 C.2     1  T_I11      -0.0765
      5 C4          4.4511    2.4459   -9.1926 C.3     1  T_I11      -0.0438
      6 H41         5.4467    2.1835   -9.5649 H       1  T_I11       0.0274
      7 H42         3.9518    2.9874  -10.0030 H       1  T_I11       0.0274
      8 H43         4.5671    3.1302   -8.3484 H       1  T_I11       0.0274
      9 C2          4.2246    0.1497   -8.1950 C.2     1  T_I11      -0.0881
     10 H2          3.5874   -0.6971   -7.9435 H       1  T_I11       0.0569
     11 C3          5.6420    0.0159   -7.7351 C.3     1  T_I11      -0.0466
     12 H31         6.2268    0.9309   -7.8673 H       1  T_I11       0.0272
     13 H32         5.6537   -0.2222   -6.6671 H       1  T_I11       0.0272
     14 H33         6.1392   -0.7943   -8.2743 H       1  T_I11       0.0272
     15 C           2.8621    4.9045   -6.0837 C.3     1  T_I11      -0.0440
     16 HC1         2.2973    5.6071   -6.7031 H       1  T_I11       0.0274
     17 HC2         2.6542    5.1393   -5.0354 H       1  T_I11       0.0274
     18 HC3         3.9275    5.0727   -6.2735 H       1  T_I11       0.0274
     19 C1          2.5119    3.4707   -6.3808 C.2     1  T_I11      -0.0796
     20 C4          3.1887    2.4719   -5.4815 C.3     1  T_I11      -0.0440
     21 H41         3.0669    1.4383   -5.8044 H       1  T_I11       0.0274
     22 H42         4.2656    2.6685   -5.4423 H       1  T_I11       0.0274
     23 H43         2.7864    2.5483   -4.4638 H       1  T_I11       0.0274
     24 C2          1.7109    3.1559   -7.4204 C.2     1  T_I11      -0.0850
     25 H2          1.3011    3.9616   -8.0282 H       1  T_I11       0.0572
     26 C3          1.3322    1.7740   -7.8816 C.3     1  T_I11      -0.0308
     27 H31         1.3746    1.0521   -7.0565 H       1  T_I11       0.0310
     28 H32         0.2793    1.7964   -8.1862 H       1  T_I11       0.0310
@<TRIPOS>BOND
     1     1     4    1
     2     1     2    1
     3     1     3    1
     4     1    26    1
     5     4     9    2
     6     4     5    1
     7     5     6    1
     8     5     7    1
     9     5     8    1
    10     9    11    1
    11     9    10    1
    12    11    12    1
    13    11    13    1
    14    11    14    1
    15    15    19    1
    16    15    16    1
    17    15    17    1
    18    15    18    1
    19    19    24    2
    20    19    20    1
    21    20    21    1
    22    20    22    1
    23    20    23    1
    24    24    26    1
    25    24    25    1
    26    26    27    1
    27    26    28    1
@<TRIPOS>MOLECULE
/home/jramos/Programacion/GITHUB_REPO_DIR/gecos2/data/IsoP.pdb
 28 27 0 0 0
SMALL
GASTEIGER

@<TRIPOS>ATOM
      1 C1          2.1728    1.1747   -8.9530 C.3     1  T_I11      -0.0286
      2 HC1         1.8987    0.1510   -9.2399 H       1  T_I11       0.0313
      3 HC3         2.0179    1.7765   -9.8582 H       1  T_I11       0.0313
      4 C1          3.6427    1.2179   -8.5732 C.2     1  T_I11      -0.0765
      5 C4          4.2136   -0.0436   -7.9811 C.3     1  T_I11      -0.0438
      6 H41         4.9356    0.1692   -7.1871 H       1  T_I11       0.0274
      7 H42         3.4366   -0.6684   -7.5320 H       1  T_I11       0.0274
      8 H43         4.7007   -0.6369   -8.7614 H       1  T_I11       0.0274
      9 C2          4.3805    2.3225   -8.8051 C.2     1  T_I11      -0.0881
     10 H2          3.8933    3.1912   -9.2483 H       1  T_I11       0.0569
     11 C3          5.8404    2.5069   -8.5309 C.3     1  T_I11      -0.0466
     12 H31         6.3216    1.6183   -8.1168 H       1  T_I11       0.0272
     13 H32         6.3585    2.7621   -9.4603 H       1  T_I11       0.0272
     14 H33         5.9817    3.3298   -7.8241 H       1  T_I11       0.0272
     15 C           1.4737    0.5657   -4.1279 C.3     1  T_I11      -0.0440
     16 HC1         1.6955   -0.4713   -4.4042 H       1  T_I11       0.0274
     17 HC2         2.3201    0.9353   -3.5395 H       1  T_I11       0.0274
     18 HC3         0.5821    0.5628   -3.4940 H       1  T_I11       0.0274
     19 C1          1.2631    1.4436   -5.3336 C.2     1  T_I11      -0.0796
     20 C4          1.0555    2.9000   -5.0288 C.3     1  T_I11      -0.0440
     21 H41         0.4567    3.4006   -5.7950 H       1  T_I11       0.0274
     22 H42         0.5108    3.0221   -4.0856 H       1  T_I11       0.0274
     23 H43         2.0182    3.4136   -4.9384 H       1  T_I11       0.0274
     24 C2          1.2672    0.9237   -6.5752 C.2     1  T_I11      -0.0850
     25 H2          1.3614   -0.1535   -6.6868 H       1  T_I11       0.0572
     26 C3          1.2056    1.6932   -7.8715 C.3     1  T_I11      -0.0308
     27 H31         0.1833    1.6205   -8.2615 H       1  T_I11       0.0310
     28 H32         1.4099    2.7586   -7.7092 H       1  T_I11       0.0310
@<TRIPOS>BOND
     1     1     4    1
     2     1     2    1
     3     1     3    1
     4     1    26    1
     5     4     9    2
     6     4     5    1
     7     5     6    1
     8     5     7    1
     9     5     8    1
    10     9    11    1
    11     9    10    1
    12    11    12    1
    13    11    13    1
    14    11    14    1
    15    15    19    1
    16    15    16    1
    17    15    17    1
    18    15    18    1
    19    19    24    2
    20    19    20    1
    21    20    21    1
    22    20    22    1
    23    20    23    1
    24    24    26    1
    25    24    25    1
    26    26    27    1
    27    26    28    1
@<TRIPOS>MOLECULE
/home/jramos/Programacion/GITHUB_REPO_DIR/gecos2/data/IsoP.pdb
 28 27 0 0 0
SMALL
GASTEIGER

@<TRIPOS>ATOM
      1 C1          2.1809    1.1400   -8.8872 C.3     1  T_I11      -0.0286
      2 HC1         1.8749    0.0912   -8.9961 H       1  T_I11       0.0313
      3 HC3         2.0089    1.5819   -9.8747 H       1  T_I11       0.0313
      4 C1          3.6639    1.2043   -8.5585 C.2     1  T_I11      -0.0765
      5 C4          4.3797    2.4743   -8.9406 C.3     1  T_I11      -0.0438
      6 H41         5.4195    2.2922   -9.2261 H       1  T_I11       0.0274
      7 H42         3.9096    2.9459   -9.8090 H       1  T_I11       0.0274
      8 H43         4.3695    3.1879   -8.1110 H       1  T_I11       0.0274
      9 C2          4.2742    0.1520   -7.9795 C.2     1  T_I11      -0.0881
     10 H2          3.6848   -0.7355   -7.7572 H       1  T_I11       0.0569
     11 C3          5.7033    0.0662   -7.5469 C.3     1  T_I11      -0.0466
     12 H31         6.2611    0.9925   -7.6983 H       1  T_I11       0.0272
     13 H32         5.7437   -0.1697   -6.4792 H       1  T_I11       0.0272
     14 H33         6.2098   -0.7340   -8.0949 H       1  T_I11       0.0272
     15 C           1.8785    5.6443   -8.0575 C.3     1  T_I11      -0.0440
     16 HC1         2.2616    5.6968   -7.0336 H       1  T_I11       0.0274
     17 HC2         2.6843    5.9609   -8.7281 H       1  T_I11       0.0274
     18 HC3         1.0521    6.3562   -8.1428 H       1  T_I11       0.0274
     19 C1          1.4219    4.2604   -8.4237 C.2     1  T_I11      -0.0796
     20 C4          0.8939    4.1125   -9.8242 C.3     1  T_I11      -0.0440
     21 H41         0.2196    3.2558   -9.9251 H       1  T_I11       0.0274
     22 H42         0.3226    4.9992  -10.1190 H       1  T_I11       0.0274
     23 H43         1.7225    3.9908  -10.5305 H       1  T_I11       0.0274
     24 C2          1.5391    3.2384   -7.5520 C.2     1  T_I11      -0.0850
     25 H2          1.9378    3.4401   -6.5614 H       1  T_I11       0.0572
     26 C3          1.2688    1.7848   -7.8293 C.3     1  T_I11      -0.0308
     27 H31         1.3826    1.2341   -6.8845 H       1  T_I11       0.0310
     28 H32         0.2168    1.6557   -8.1174 H       1  T_I11       0.0310
@<TRIPOS>BOND
     1     1     4    1
     2     1     2    1
     3     1     3    1
     4     1    26    1
     5     4     9    2
     6     4     5    1
     7     5     6    1
     8     5     7    1
     9     5     8    1
    10     9    11    1
    11     9    10    1
    12    11    12    1
    13    11    13    1
    14    11    14    1
    15    15    19    1
    16    15    16    1
    17    15    17    1
    18    15    18    1
    19    19    24    2
    20    19    20    1
    21    20    21    1
    22    20    22    1
    23    20    23    1
    24    24    26    1
    25    24    25    1
    26    26    27    1
    27    26    28    1
@<TRIPOS>MOLECULE
/home/jramos/Programacion/GITHUB_REPO_DIR/gecos2/data/IsoP.pdb
 28 27 0 0 0
SMALL
GASTEIGER

@<TRIPOS>ATOM
      1 C1          2.1994    1.2474   -8.9602 C.3     1  T_I11      -0.0286
      2 HC1         1.8860    0.2390   -9.2596 H       1  T_I11       0.0313
      3 HC3         2.0720    1.8843   -9.8466 H       1  T_I11       0.0313
      4 C1          3.6812    1.1975   -8.6023 C.2     1  T_I11      -0.0765
      5 C4          4.6035    1.4266   -9.7695 C.3     1  T_I11      -0.0438
      6 H41         5.5610    0.9112   -9.6483 H       1  T_I11       0.0274
      7 H42         4.1616    1.0440  -10.6958 H       1  T_I11       0.0274
      8 H43         4.7873    2.4978   -9.8956 H       1  T_I11       0.0274
      9 C2          4.1186    1.0096   -7.3402 C.2     1  T_I11      -0.0881
     10 H2          3.3955    0.8341   -6.5461 H       1  T_I11       0.0569
     11 C3          5.5269    1.0677   -6.8418 C.3     1  T_I11      -0.0466
     12 H31         6.2585    1.2879   -7.6211 H       1  T_I11       0.0272
     13 H32         5.6049    1.8557   -6.0848 H       1  T_I11       0.0272
     14 H33         5.7950    0.1174   -6.3726 H       1  T_I11       0.0272
     15 C           1.0870    5.4832   -6.6316 C.3     1  T_I11      -0.0440
     16 HC1         2.1414    5.6659   -6.8666 H       1  T_I11       0.0274
     17 HC2         0.4901    6.2037   -7.2012 H       1  T_I11       0.0274
     18 HC3         0.9481    5.6790   -5.5633 H       1  T_I11       0.0274
     19 C1          0.6624    4.0773   -6.9655 C.2     1  T_I11      -0.0796
     20 C4         -0.7691    3.7409   -6.6765 C.3     1  T_I11      -0.0440
     21 H41        -0.8920    2.6878   -6.4045 H       1  T_I11       0.0274
     22 H42        -1.1456    4.3281   -5.8311 H       1  T_I11       0.0274
     23 H43        -1.3919    3.9555   -7.5508 H       1  T_I11       0.0274
     24 C2          1.5451    3.1943   -7.4693 C.2     1  T_I11      -0.0850
     25 H2          2.5742    3.5205   -7.6102 H       1  T_I11       0.0572
     26 C3          1.2372    1.7740   -7.8787 C.3     1  T_I11      -0.0308
     27 H31         1.2644    1.1256   -6.9965 H       1  T_I11       0.0310
     28 H32         0.2202    1.7144   -8.2860 H       1  T_I11       0.0310
@<TRIPOS>BOND
     1     1     4    1
     2     1     2    1
     3     1     3    1
     4     1    26    1
     5     4     9    2
     6     4     5    1
     7     5     6    1
     8     5     7    1
     9     5     8    1
    10     9    11    1
    11     9    10    1
    12    11    12    1
    13    11    13    1
    14    11    14    1
    15    15    19    1
    16    15    16    1
    17    15    17    1
    18    15    18    1
    19    19    24    2
    20    19    20    1
    21    20    21    1
    22    20    22    1
    23    20    23    1
    24    24    26    1
    25    24    25    1
    26    26    27    1
    27    26    28    1
@<TRIPOS>MOLECULE
/home/jramos/Programacion/GITHUB_REPO_DIR/gecos2/data/IsoP.pdb
 28 27 0 0 0
SMALL
GASTEIGER

@<TRIPOS>ATOM
      1 C1          2.1586    1.2513   -8.9628 C.3     1  T_I11      -0.0286
      2 HC1         1.8655    0.2263   -9.2235 H       1  T_I11       0.0313
      3 HC3         2.0324    1.8601   -9.8676 H       1  T_I11       0.0313
      4 C1          3.6400    1.2521   -8.5862 C.2     1  T_I11      -0.0765
      5 C4          4.5540    0.7604   -9.6767 C.3     1  T_I11      -0.0438
      6 H41         5.4198    0.2236   -9.2777 H       1  T_I11       0.0274
      7 H42         4.0353    0.0566  -10.3376 H       1  T_I11       0.0274
      8 H43         4.9045    1.6018  -10.2828 H       1  T_I11       0.0274
      9 C2          4.1019    1.6612   -7.3855 C.2     1  T_I11      -0.0881
     10 H2          3.4067    2.0043   -6.6235 H       1  T_I11       0.0569
     11 C3          5.5204    1.7469   -6.9206 C.3     1  T_I11      -0.0466
     12 H31         6.2489    1.4529   -7.6786 H       1  T_I11       0.0272
     13 H32         5.7423    2.7775   -6.6263 H       1  T_I11       0.0272
     14 H33         5.6571    1.1066   -6.0434 H       1  T_I11       0.0272
     15 C          -2.6567    2.1502   -7.6941 C.3     1  T_I11      -0.0440
     16 HC1        -2.8324    1.7707   -8.7058 H       1  T_I11       0.0274
     17 HC2        -3.2016    1.5082   -6.9945 H       1  T_I11       0.0274
     18 HC3        -3.0756    3.1602   -7.6385 H       1  T_I11       0.0274
     19 C1         -1.1965    2.1766   -7.3432 C.2     1  T_I11      -0.0796
     20 C4         -0.8775    2.6638   -5.9512 C.3     1  T_I11      -0.0440
     21 H41         0.0948    3.1557   -5.8930 H       1  T_I11       0.0274
     22 H42        -1.6182    3.4001   -5.6168 H       1  T_I11       0.0274
     23 H43        -0.8878    1.8240   -5.2483 H       1  T_I11       0.0274
     24 C2         -0.2463    1.7879   -8.2189 C.2     1  T_I11      -0.0850
     25 H2         -0.5305    1.4461   -9.2106 H       1  T_I11       0.0572
     26 C3          1.2152    1.7787   -7.8733 C.3     1  T_I11      -0.0308
     27 H31         1.5114    2.8086   -7.6359 H       1  T_I11       0.0310
     28 H32         1.3411    1.1593   -6.9745 H       1  T_I11       0.0310
@<TRIPOS>BOND
     1     1     4    1
     2     1     2    1
     3     1     3    1
     4     1    26    1
     5     4     9    2
     6     4     5    1
     7     5     6    1
     8     5     7    1
     9     5     8    1
    10     9    11    1
    11     9    10    1
    12    11    12    1
    13    11    13    1
    14    11    14    1
    15    15    19    1
    16    15    16    1
    17    15    17    1
    18    15    18    1
    19    19    24    2
    20    19    20    1
    21    20    21    1
    22    20    22    1
    23    20    23    1
    24    24    26    1
    25    24    25    1
    26    26    27    1
    27    26    28    1
